* NGSPICE file created from sky130_sw_ip__bgrref_por.ext - technology: sky130A

.subckt sky130_fd_pr__nfet_g5v0d10v5_UNEQ2N a_n252_n322# a_50_n100# a_n108_n100# a_n50_n188#
X0 a_50_n100# a_n50_n188# a_n108_n100# a_n252_n322# sky130_fd_pr__nfet_g5v0d10v5 ad=0.29 pd=2.58 as=0.29 ps=2.58 w=1 l=0.5
.ends

.subckt sky130_fd_pr__pfet_g5v0d10v5_VHBZVD a_n400_n197# a_400_n100# w_n658_n397#
+ a_n458_n100#
X0 a_400_n100# a_n400_n197# a_n458_n100# w_n658_n397# sky130_fd_pr__pfet_g5v0d10v5 ad=0.29 pd=2.58 as=0.29 ps=2.58 w=1 l=4
.ends

.subckt sky130_fd_pr__pfet_g5v0d10v5_KLNSY6 a_n29_n100# w_n387_n397# a_n187_n100#
+ a_29_n197# a_n129_n197# a_129_n100#
X0 a_129_n100# a_29_n197# a_n29_n100# w_n387_n397# sky130_fd_pr__pfet_g5v0d10v5 ad=0.29 pd=2.58 as=0.145 ps=1.29 w=1 l=0.5
X1 a_n29_n100# a_n129_n197# a_n187_n100# w_n387_n397# sky130_fd_pr__pfet_g5v0d10v5 ad=0.145 pd=1.29 as=0.29 ps=2.58 w=1 l=0.5
.ends

.subckt sky130_fd_pr__nfet_g5v0d10v5_MJGQJ3 a_50_n400# a_n247_n622# a_n108_n400# a_n50_n488#
X0 a_50_n400# a_n50_n488# a_n108_n400# a_n247_n622# sky130_fd_pr__nfet_g5v0d10v5 ad=1.16 pd=8.58 as=1.16 ps=8.58 w=4 l=0.5
.ends

.subckt sky130_fd_pr__pfet_g5v0d10v5_KLD8Y6 a_n50_n297# a_50_n200# w_n308_n497# a_n108_n200#
X0 a_50_n200# a_n50_n297# a_n108_n200# w_n308_n497# sky130_fd_pr__pfet_g5v0d10v5 ad=0.58 pd=4.58 as=0.58 ps=4.58 w=2 l=0.5
.ends

.subckt mux2to1 A1 A0 Z VCC S VSS
XXM12 VSS m2_844_n775# VSS S sky130_fd_pr__nfet_g5v0d10v5_UNEQ2N
XXM13 S m2_844_n775# VCC VCC sky130_fd_pr__pfet_g5v0d10v5_KLD8Y6
XXM1 S Z VCC A0 sky130_fd_pr__pfet_g5v0d10v5_KLD8Y6
XXM2 VSS Z A0 m2_844_n775# sky130_fd_pr__nfet_g5v0d10v5_UNEQ2N
XXM3 m2_844_n775# Z VCC A1 sky130_fd_pr__pfet_g5v0d10v5_KLD8Y6
XXM4 VSS Z A1 S sky130_fd_pr__nfet_g5v0d10v5_UNEQ2N
.ends

.subckt sky130_fd_pr__nfet_g5v0d10v5_YYAQG7 a_100_n200# a_n292_n422# a_n158_n200#
+ a_n100_n288#
X0 a_100_n200# a_n100_n288# a_n158_n200# a_n292_n422# sky130_fd_pr__nfet_g5v0d10v5 ad=0.58 pd=4.58 as=0.58 ps=4.58 w=2 l=1
.ends

.subckt sky130_fd_pr__pfet_g5v0d10v5_KLAZY6 a_n50_n197# a_50_n100# w_n308_n397# a_n108_n100#
X0 a_50_n100# a_n50_n197# a_n108_n100# w_n308_n397# sky130_fd_pr__pfet_g5v0d10v5 ad=0.29 pd=2.58 as=0.29 ps=2.58 w=1 l=0.5
.ends

.subckt sky130_fd_pr__nfet_g5v0d10v5_T4TNG7 a_n100_n597# a_n100_21# a_100_109# a_100_n509#
+ a_n158_n509# a_n158_109# a_n297_n731#
X0 a_100_n509# a_n100_n597# a_n158_n509# a_n297_n731# sky130_fd_pr__nfet_g5v0d10v5 ad=0.58 pd=4.58 as=0.58 ps=4.58 w=2 l=1
X1 a_100_109# a_n100_21# a_n158_109# a_n297_n731# sky130_fd_pr__nfet_g5v0d10v5 ad=0.58 pd=4.58 as=0.58 ps=4.58 w=2 l=1
.ends

.subckt sky130_fd_pr__nfet_01v8_SALWK2 a_n88_n400# a_n33_n488# a_n190_n574# a_30_n400#
X0 a_30_n400# a_n33_n488# a_n88_n400# a_n190_n574# sky130_fd_pr__nfet_01v8 ad=1.16 pd=8.58 as=1.16 ps=8.58 w=4 l=0.3
.ends

.subckt sky130_fd_pr__pfet_g5v0d10v5_FGK6VM a_n100_n297# a_100_n200# w_n358_n497#
+ a_n158_n200#
X0 a_100_n200# a_n100_n297# a_n158_n200# w_n358_n497# sky130_fd_pr__pfet_g5v0d10v5 ad=0.58 pd=4.58 as=0.58 ps=4.58 w=2 l=1
.ends

.subckt sky130_fd_pr__res_xhigh_po_0p35_FVGVKR a_n284_684# a_214_n1116# a_n118_684#
+ a_48_n1116# a_n284_n1116# a_n414_n1246# a_n118_n1116# a_48_684# a_214_684#
X0 a_214_684# a_214_n1116# a_n414_n1246# sky130_fd_pr__res_xhigh_po_0p35 l=7
X1 a_n284_684# a_n284_n1116# a_n414_n1246# sky130_fd_pr__res_xhigh_po_0p35 l=7
X2 a_48_684# a_48_n1116# a_n414_n1246# sky130_fd_pr__res_xhigh_po_0p35 l=7
X3 a_n118_684# a_n118_n1116# a_n414_n1246# sky130_fd_pr__res_xhigh_po_0p35 l=7
.ends

.subckt sky130_fd_pr__pfet_g5v0d10v5_KL3SY6 a_n50_n497# a_50_n400# w_n308_n697# a_n108_n400#
X0 a_50_n400# a_n50_n497# a_n108_n400# w_n308_n697# sky130_fd_pr__pfet_g5v0d10v5 ad=1.16 pd=8.58 as=1.16 ps=8.58 w=4 l=0.5
.ends

.subckt sky130_fd_pr__cap_mim_m3_1_KB5CJD m3_n1186_n1040# c1_n1146_n1000#
X0 c1_n1146_n1000# m3_n1186_n1040# sky130_fd_pr__cap_mim_m3_1 l=10 w=10
.ends

.subckt sky130_fd_pr__nfet_01v8_B8TQK3 a_n100_n597# a_n100_21# a_n260_n683# a_100_109#
+ a_100_n509# a_n158_n509# a_n158_109#
X0 a_100_n509# a_n100_n597# a_n158_n509# a_n260_n683# sky130_fd_pr__nfet_01v8 ad=0.58 pd=4.58 as=0.58 ps=4.58 w=2 l=1
X1 a_100_109# a_n100_21# a_n158_109# a_n260_n683# sky130_fd_pr__nfet_01v8 ad=0.58 pd=4.58 as=0.58 ps=4.58 w=2 l=1
.ends

.subckt comparator_final Vinn Vinp RST AVDD DVDD VSS
XXM12 VSS m1_9711_n5360# VSS vo1 sky130_fd_pr__nfet_g5v0d10v5_UNEQ2N
XXM23 m2_26_n3922# m2_26_n3922# AVDD AVDD sky130_fd_pr__pfet_g5v0d10v5_VHBZVD
XXM13 m1_9711_n5360# DVDD DVDD vo1 vo1 DVDD sky130_fd_pr__pfet_g5v0d10v5_KLNSY6
XXM14 vo1 VSS VSS vo sky130_fd_pr__nfet_g5v0d10v5_MJGQJ3
Xx1 VD VS VY AVDD vo1 VSS mux2to1
XXM25 VSS VSS vbn vbn sky130_fd_pr__nfet_g5v0d10v5_YYAQG7
XXM24 m2_26_n3922# vbn AVDD AVDD sky130_fd_pr__pfet_g5v0d10v5_VHBZVD
XXM15 vo vo1 li_9669_n4446# li_9669_n4446# sky130_fd_pr__pfet_g5v0d10v5_KLAZY6
XXM26 vbn vbn m2_1724_n5235# m2_1724_n5235# m2_26_n3922# m2_26_n3922# VSS sky130_fd_pr__nfet_g5v0d10v5_T4TNG7
XXM16 VSS RST VSS m1_9711_n5360# sky130_fd_pr__nfet_g5v0d10v5_UNEQ2N
XXM27 m2_26_n3922# VSS vbn m2_n888_n4722# sky130_fd_pr__nfet_g5v0d10v5_MJGQJ3
XXM17 RST DVDD DVDD m1_9711_n5360# m1_9711_n5360# DVDD sky130_fd_pr__pfet_g5v0d10v5_KLNSY6
XXM28 VSS vbn VSS m2_n888_n4722# sky130_fd_pr__nfet_01v8_SALWK2
XXM19 li_9669_n4446# li_9669_n4446# AVDD AVDD sky130_fd_pr__pfet_g5v0d10v5_FGK6VM
XXR12 m1_2193_n3581# VSS m1_2193_n3581# m1_2360_n5380# m2_1724_n5235# VSS m1_2360_n5380#
+ m1_2525_n3581# m1_2525_n3581# sky130_fd_pr__res_xhigh_po_0p35_FVGVKR
XXM1 vbn vbn VS VS VSS VSS VSS sky130_fd_pr__nfet_g5v0d10v5_T4TNG7
XXM2 m1_7183_n5366# vt AVDD AVDD sky130_fd_pr__pfet_g5v0d10v5_KL3SY6
Xsky130_fd_pr__cap_mim_m3_1_KB5CJD_1 vt vo sky130_fd_pr__cap_mim_m3_1_KB5CJD
XXM3 m1_7183_n5366# m1_7183_n5366# AVDD AVDD sky130_fd_pr__pfet_g5v0d10v5_KL3SY6
XXM4 m1_7183_n5366# VSS m2_6521_n3805# AVDD sky130_fd_pr__nfet_g5v0d10v5_MJGQJ3
XXM5 m1_n1718_n3574# m1_n1718_n3574# AVDD AVDD sky130_fd_pr__pfet_g5v0d10v5_VHBZVD
XXM6 vbn vbn VSS VSS vo vo VSS sky130_fd_pr__nfet_g5v0d10v5_T4TNG7
XXM7 vt AVDD AVDD vo sky130_fd_pr__pfet_g5v0d10v5_KL3SY6
XXM8 vt VSS VD AVDD sky130_fd_pr__nfet_g5v0d10v5_MJGQJ3
Xsky130_fd_pr__nfet_01v8_B8TQK3_0 Vinn Vinn VSS VY VY VD VD sky130_fd_pr__nfet_01v8_B8TQK3
Xsky130_fd_pr__nfet_01v8_B8TQK3_1 Vinn Vinn VSS VS VS VD VD sky130_fd_pr__nfet_01v8_B8TQK3
Xsky130_fd_pr__nfet_01v8_B8TQK3_2 Vinn Vinn VSS VS VY VD VD sky130_fd_pr__nfet_01v8_B8TQK3
XXM20 m2_n888_n4722# m2_n888_n4722# AVDD m1_n1844_n4683# sky130_fd_pr__pfet_g5v0d10v5_VHBZVD
XXM10 Vinp Vinp VSS m2_6521_n3805# m2_6521_n3805# VS VS sky130_fd_pr__nfet_01v8_B8TQK3
XXM11 m1_n1844_n4683# m1_n1718_n3574# AVDD m1_n1844_n4683# sky130_fd_pr__pfet_g5v0d10v5_VHBZVD
.ends

.subckt sky130_fd_pr__res_xhigh_po_0p35_WGPHGK a_1625_n4416# a_463_3984# a_n699_3984#
+ a_n2157_n4546# a_n1197_3984# a_n1363_n4416# a_297_3984# a_1127_n4416# a_n533_n4416#
+ a_1957_3984# a_n1861_3984# a_961_3984# a_n35_n4416# a_795_n4416# a_n1695_3984# a_1957_n4416#
+ a_795_3984# a_n201_3984# a_n1695_n4416# a_n2027_3984# a_n1529_3984# a_297_n4416#
+ a_1459_n4416# a_629_3984# a_n35_3984# a_n865_n4416# a_629_n4416# a_1293_3984# a_n1197_n4416#
+ a_n367_n4416# a_n1529_n4416# a_n533_3984# a_131_n4416# a_n1031_3984# a_1127_3984#
+ a_n2027_n4416# a_131_3984# a_n367_3984# a_1791_3984# a_n1031_n4416# a_1791_n4416#
+ a_961_n4416# a_n201_n4416# a_1625_3984# a_n699_n4416# a_n865_3984# a_n1861_n4416#
+ a_1459_3984# a_1293_n4416# a_463_n4416# a_n1363_3984#
X0 a_n1197_3984# a_n1197_n4416# a_n2157_n4546# sky130_fd_pr__res_xhigh_po_0p35 l=40
X1 a_n1695_3984# a_n1695_n4416# a_n2157_n4546# sky130_fd_pr__res_xhigh_po_0p35 l=40
X2 a_n533_3984# a_n533_n4416# a_n2157_n4546# sky130_fd_pr__res_xhigh_po_0p35 l=40
X3 a_1127_3984# a_1127_n4416# a_n2157_n4546# sky130_fd_pr__res_xhigh_po_0p35 l=40
X4 a_463_3984# a_463_n4416# a_n2157_n4546# sky130_fd_pr__res_xhigh_po_0p35 l=40
X5 a_629_3984# a_629_n4416# a_n2157_n4546# sky130_fd_pr__res_xhigh_po_0p35 l=40
X6 a_n1031_3984# a_n1031_n4416# a_n2157_n4546# sky130_fd_pr__res_xhigh_po_0p35 l=40
X7 a_n35_3984# a_n35_n4416# a_n2157_n4546# sky130_fd_pr__res_xhigh_po_0p35 l=40
X8 a_1625_3984# a_1625_n4416# a_n2157_n4546# sky130_fd_pr__res_xhigh_po_0p35 l=40
X9 a_961_3984# a_961_n4416# a_n2157_n4546# sky130_fd_pr__res_xhigh_po_0p35 l=40
X10 a_n367_3984# a_n367_n4416# a_n2157_n4546# sky130_fd_pr__res_xhigh_po_0p35 l=40
X11 a_297_3984# a_297_n4416# a_n2157_n4546# sky130_fd_pr__res_xhigh_po_0p35 l=40
X12 a_n865_3984# a_n865_n4416# a_n2157_n4546# sky130_fd_pr__res_xhigh_po_0p35 l=40
X13 a_1293_3984# a_1293_n4416# a_n2157_n4546# sky130_fd_pr__res_xhigh_po_0p35 l=40
X14 a_1459_3984# a_1459_n4416# a_n2157_n4546# sky130_fd_pr__res_xhigh_po_0p35 l=40
X15 a_795_3984# a_795_n4416# a_n2157_n4546# sky130_fd_pr__res_xhigh_po_0p35 l=40
X16 a_n1529_3984# a_n1529_n4416# a_n2157_n4546# sky130_fd_pr__res_xhigh_po_0p35 l=40
X17 a_n2027_3984# a_n2027_n4416# a_n2157_n4546# sky130_fd_pr__res_xhigh_po_0p35 l=40
X18 a_n1363_3984# a_n1363_n4416# a_n2157_n4546# sky130_fd_pr__res_xhigh_po_0p35 l=40
X19 a_1791_3984# a_1791_n4416# a_n2157_n4546# sky130_fd_pr__res_xhigh_po_0p35 l=40
X20 a_1957_3984# a_1957_n4416# a_n2157_n4546# sky130_fd_pr__res_xhigh_po_0p35 l=40
X21 a_n201_3984# a_n201_n4416# a_n2157_n4546# sky130_fd_pr__res_xhigh_po_0p35 l=40
X22 a_n1861_3984# a_n1861_n4416# a_n2157_n4546# sky130_fd_pr__res_xhigh_po_0p35 l=40
X23 a_n699_3984# a_n699_n4416# a_n2157_n4546# sky130_fd_pr__res_xhigh_po_0p35 l=40
X24 a_131_3984# a_131_n4416# a_n2157_n4546# sky130_fd_pr__res_xhigh_po_0p35 l=40
.ends

.subckt sky130_fd_pr__nfet_01v8_L9ESAD a_n175_n224# a_n73_n50# a_n33_n154# a_15_n50#
X0 a_15_n50# a_n33_n154# a_n73_n50# a_n175_n224# sky130_fd_pr__nfet_01v8 ad=0.145 pd=1.58 as=0.145 ps=1.58 w=0.5 l=0.15
.ends

.subckt sky130_fd_pr__pfet_01v8_XPC8Y6 a_n29_n100# a_n187_n100# a_29_n197# a_n129_n197#
+ a_129_n100# w_n325_n319#
X0 a_129_n100# a_29_n197# a_n29_n100# w_n325_n319# sky130_fd_pr__pfet_01v8 ad=0.29 pd=2.58 as=0.145 ps=1.29 w=1 l=0.5
X1 a_n29_n100# a_n129_n197# a_n187_n100# w_n325_n319# sky130_fd_pr__pfet_01v8 ad=0.145 pd=1.29 as=0.29 ps=2.58 w=1 l=0.5
.ends

.subckt sky130_fd_pr__pfet_01v8_GHZ9W9 a_n29_n100# a_89_n100# a_26_n197# w_n285_n319#
+ a_n92_n197# a_n147_n100#
X0 a_n29_n100# a_n92_n197# a_n147_n100# w_n285_n319# sky130_fd_pr__pfet_01v8 ad=0.145 pd=1.29 as=0.29 ps=2.58 w=1 l=0.3
X1 a_89_n100# a_26_n197# a_n29_n100# w_n285_n319# sky130_fd_pr__pfet_01v8 ad=0.29 pd=2.58 as=0.145 ps=1.29 w=1 l=0.3
.ends

.subckt sky130_fd_pr__cap_mim_m3_2_2V27AY m4_200_n17880# c2_280_n17800# c2_n4018_n17800#
+ m4_n4098_n17880#
X0 c2_280_n17800# m4_200_n17880# sky130_fd_pr__cap_mim_m3_2 l=16 w=16
X1 c2_n4018_n17800# m4_n4098_n17880# sky130_fd_pr__cap_mim_m3_2 l=16 w=16
X2 c2_n4018_n17800# m4_n4098_n17880# sky130_fd_pr__cap_mim_m3_2 l=16 w=16
X3 c2_280_n17800# m4_200_n17880# sky130_fd_pr__cap_mim_m3_2 l=16 w=16
X4 c2_280_n17800# m4_200_n17880# sky130_fd_pr__cap_mim_m3_2 l=16 w=16
X5 c2_280_n17800# m4_200_n17880# sky130_fd_pr__cap_mim_m3_2 l=16 w=16
X6 c2_n4018_n17800# m4_n4098_n17880# sky130_fd_pr__cap_mim_m3_2 l=16 w=16
X7 c2_n4018_n17800# m4_n4098_n17880# sky130_fd_pr__cap_mim_m3_2 l=16 w=16
X8 c2_n4018_n17800# m4_n4098_n17880# sky130_fd_pr__cap_mim_m3_2 l=16 w=16
X9 c2_280_n17800# m4_200_n17880# sky130_fd_pr__cap_mim_m3_2 l=16 w=16
X10 c2_n4018_n17800# m4_n4098_n17880# sky130_fd_pr__cap_mim_m3_2 l=16 w=16
X11 c2_n4018_n17800# m4_n4098_n17880# sky130_fd_pr__cap_mim_m3_2 l=16 w=16
X12 c2_n4018_n17800# m4_n4098_n17880# sky130_fd_pr__cap_mim_m3_2 l=16 w=16
X13 c2_280_n17800# m4_200_n17880# sky130_fd_pr__cap_mim_m3_2 l=16 w=16
X14 c2_n4018_n17800# m4_n4098_n17880# sky130_fd_pr__cap_mim_m3_2 l=16 w=16
X15 c2_280_n17800# m4_200_n17880# sky130_fd_pr__cap_mim_m3_2 l=16 w=16
X16 c2_280_n17800# m4_200_n17880# sky130_fd_pr__cap_mim_m3_2 l=16 w=16
X17 c2_280_n17800# m4_200_n17880# sky130_fd_pr__cap_mim_m3_2 l=16 w=16
X18 c2_280_n17800# m4_200_n17880# sky130_fd_pr__cap_mim_m3_2 l=16 w=16
X19 c2_n4018_n17800# m4_n4098_n17880# sky130_fd_pr__cap_mim_m3_2 l=16 w=16
.ends

.subckt sky130_fd_pr__nfet_01v8_PR763Z a_591_n50# a_1071_n50# a_207_n50# a_n465_n50#
+ a_n207_n76# a_n945_n50# a_783_n50# a_1263_n50# a_n177_n50# a_n1299_72# a_n1427_n224#
+ a_n657_n50# a_n1137_n50# a_n1325_n50# a_495_n50# a_111_n50# a_975_n50# a_n369_n50#
+ a_n975_n76# a_n849_n50# a_1167_n50# a_687_n50# a_303_n50# a_n561_n50# a_n1041_n50#
+ a_n1167_n76# a_n81_n50# a_399_n50# a_879_n50# a_n273_n50# a_15_n50# a_n753_n50#
+ a_n1233_n50#
X0 a_15_n50# a_n207_n76# a_n81_n50# a_n1427_n224# sky130_fd_pr__nfet_01v8 ad=0.0825 pd=0.83 as=0.0825 ps=0.83 w=0.5 l=0.15
X1 a_111_n50# a_n207_n76# a_15_n50# a_n1427_n224# sky130_fd_pr__nfet_01v8 ad=0.0825 pd=0.83 as=0.0825 ps=0.83 w=0.5 l=0.15
X2 a_n273_n50# a_n975_n76# a_n369_n50# a_n1427_n224# sky130_fd_pr__nfet_01v8 ad=0.0825 pd=0.83 as=0.0825 ps=0.83 w=0.5 l=0.15
X3 a_n81_n50# a_n207_n76# a_n177_n50# a_n1427_n224# sky130_fd_pr__nfet_01v8 ad=0.0825 pd=0.83 as=0.0825 ps=0.83 w=0.5 l=0.15
X4 a_n177_n50# a_n207_n76# a_n273_n50# a_n1427_n224# sky130_fd_pr__nfet_01v8 ad=0.0825 pd=0.83 as=0.0825 ps=0.83 w=0.5 l=0.15
X5 a_303_n50# a_n207_n76# a_207_n50# a_n1427_n224# sky130_fd_pr__nfet_01v8 ad=0.0825 pd=0.83 as=0.0825 ps=0.83 w=0.5 l=0.15
X6 a_591_n50# a_n207_n76# a_495_n50# a_n1427_n224# sky130_fd_pr__nfet_01v8 ad=0.0825 pd=0.83 as=0.0825 ps=0.83 w=0.5 l=0.15
X7 a_207_n50# a_n207_n76# a_111_n50# a_n1427_n224# sky130_fd_pr__nfet_01v8 ad=0.0825 pd=0.83 as=0.0825 ps=0.83 w=0.5 l=0.15
X8 a_399_n50# a_n207_n76# a_303_n50# a_n1427_n224# sky130_fd_pr__nfet_01v8 ad=0.0825 pd=0.83 as=0.0825 ps=0.83 w=0.5 l=0.15
X9 a_495_n50# a_n207_n76# a_399_n50# a_n1427_n224# sky130_fd_pr__nfet_01v8 ad=0.0825 pd=0.83 as=0.0825 ps=0.83 w=0.5 l=0.15
X10 a_687_n50# a_n207_n76# a_591_n50# a_n1427_n224# sky130_fd_pr__nfet_01v8 ad=0.0825 pd=0.83 as=0.0825 ps=0.83 w=0.5 l=0.15
X11 a_783_n50# a_n207_n76# a_687_n50# a_n1427_n224# sky130_fd_pr__nfet_01v8 ad=0.0825 pd=0.83 as=0.0825 ps=0.83 w=0.5 l=0.15
X12 a_975_n50# a_n207_n76# a_879_n50# a_n1427_n224# sky130_fd_pr__nfet_01v8 ad=0.0825 pd=0.83 as=0.0825 ps=0.83 w=0.5 l=0.15
X13 a_n1041_n50# a_n1167_n76# a_n1137_n50# a_n1427_n224# sky130_fd_pr__nfet_01v8 ad=0.0825 pd=0.83 as=0.0825 ps=0.83 w=0.5 l=0.15
X14 a_879_n50# a_n207_n76# a_783_n50# a_n1427_n224# sky130_fd_pr__nfet_01v8 ad=0.0825 pd=0.83 as=0.0825 ps=0.83 w=0.5 l=0.15
X15 a_n1233_n50# a_n1299_72# a_n1325_n50# a_n1427_n224# sky130_fd_pr__nfet_01v8 ad=0.0825 pd=0.83 as=0.155 ps=1.62 w=0.5 l=0.15
X16 a_n1137_n50# a_n1167_n76# a_n1233_n50# a_n1427_n224# sky130_fd_pr__nfet_01v8 ad=0.0825 pd=0.83 as=0.0825 ps=0.83 w=0.5 l=0.15
X17 a_n561_n50# a_n975_n76# a_n657_n50# a_n1427_n224# sky130_fd_pr__nfet_01v8 ad=0.0825 pd=0.83 as=0.0825 ps=0.83 w=0.5 l=0.15
X18 a_1071_n50# a_n207_n76# a_975_n50# a_n1427_n224# sky130_fd_pr__nfet_01v8 ad=0.0825 pd=0.83 as=0.0825 ps=0.83 w=0.5 l=0.15
X19 a_1167_n50# a_n207_n76# a_1071_n50# a_n1427_n224# sky130_fd_pr__nfet_01v8 ad=0.0825 pd=0.83 as=0.0825 ps=0.83 w=0.5 l=0.15
X20 a_1263_n50# a_n207_n76# a_1167_n50# a_n1427_n224# sky130_fd_pr__nfet_01v8 ad=0.155 pd=1.62 as=0.0825 ps=0.83 w=0.5 l=0.15
X21 a_n945_n50# a_n975_n76# a_n1041_n50# a_n1427_n224# sky130_fd_pr__nfet_01v8 ad=0.0825 pd=0.83 as=0.0825 ps=0.83 w=0.5 l=0.15
X22 a_n849_n50# a_n975_n76# a_n945_n50# a_n1427_n224# sky130_fd_pr__nfet_01v8 ad=0.0825 pd=0.83 as=0.0825 ps=0.83 w=0.5 l=0.15
X23 a_n753_n50# a_n975_n76# a_n849_n50# a_n1427_n224# sky130_fd_pr__nfet_01v8 ad=0.0825 pd=0.83 as=0.0825 ps=0.83 w=0.5 l=0.15
X24 a_n657_n50# a_n975_n76# a_n753_n50# a_n1427_n224# sky130_fd_pr__nfet_01v8 ad=0.0825 pd=0.83 as=0.0825 ps=0.83 w=0.5 l=0.15
X25 a_n465_n50# a_n975_n76# a_n561_n50# a_n1427_n224# sky130_fd_pr__nfet_01v8 ad=0.0825 pd=0.83 as=0.0825 ps=0.83 w=0.5 l=0.15
X26 a_n369_n50# a_n975_n76# a_n465_n50# a_n1427_n224# sky130_fd_pr__nfet_01v8 ad=0.0825 pd=0.83 as=0.0825 ps=0.83 w=0.5 l=0.15
.ends

.subckt sky130_fd_pr__pfet_01v8_DD63S8 a_n465_n202# a_n945_18# a_1167_n202# a_n81_18#
+ a_n273_18# a_15_n202# a_n561_n202# a_975_18# a_n177_n202# a_303_18# a_1263_n202#
+ a_879_n202# a_111_n202# a_n1041_18# a_n975_n299# a_n273_n202# a_n1137_n202# a_n849_18#
+ a_975_n202# a_n561_18# a_1071_18# a_879_18# a_n177_18# a_n1233_n202# a_207_18# a_591_18#
+ a_1071_n202# a_687_n202# a_15_18# a_n465_18# a_783_n202# a_399_n202# a_n81_n202#
+ a_n849_n202# w_n1463_n397# a_495_18# a_n1233_18# a_n1041_n202# a_n1299_n299# a_495_n202#
+ a_n945_n202# a_n753_18# a_1263_18# a_n369_18# a_783_18# a_n1137_18# a_n207_n299#
+ a_591_n202# a_n657_n202# a_399_18# a_111_18# a_207_n202# a_n1167_n299# a_n753_n202#
+ a_n1325_n202# a_1167_18# a_n657_18# a_n369_n202# a_n1325_18# a_303_n202# a_687_18#
X0 a_n1233_n202# a_n1299_n299# a_n1325_n202# w_n1463_n397# sky130_fd_pr__pfet_01v8 ad=0.1155 pd=1.03 as=0.217 ps=2.02 w=0.7 l=0.15
X1 a_591_n202# a_n207_n299# a_495_n202# w_n1463_n397# sky130_fd_pr__pfet_01v8 ad=0.1155 pd=1.03 as=0.1155 ps=1.03 w=0.7 l=0.15
X2 a_n657_18# a_n975_n299# a_n753_18# w_n1463_n397# sky130_fd_pr__pfet_01v8 ad=0.1155 pd=1.03 as=0.1155 ps=1.03 w=0.7 l=0.15
X3 a_975_18# a_n207_n299# a_879_18# w_n1463_n397# sky130_fd_pr__pfet_01v8 ad=0.1155 pd=1.03 as=0.1155 ps=1.03 w=0.7 l=0.15
X4 a_1263_18# a_n207_n299# a_1167_18# w_n1463_n397# sky130_fd_pr__pfet_01v8 ad=0.217 pd=2.02 as=0.1155 ps=1.03 w=0.7 l=0.15
X5 a_n849_n202# a_n975_n299# a_n945_n202# w_n1463_n397# sky130_fd_pr__pfet_01v8 ad=0.1155 pd=1.03 as=0.1155 ps=1.03 w=0.7 l=0.15
X6 a_n945_18# a_n975_n299# a_n1041_18# w_n1463_n397# sky130_fd_pr__pfet_01v8 ad=0.1155 pd=1.03 as=0.1155 ps=1.03 w=0.7 l=0.15
X7 a_879_18# a_n207_n299# a_783_18# w_n1463_n397# sky130_fd_pr__pfet_01v8 ad=0.1155 pd=1.03 as=0.1155 ps=1.03 w=0.7 l=0.15
X8 a_n177_n202# a_n207_n299# a_n273_n202# w_n1463_n397# sky130_fd_pr__pfet_01v8 ad=0.1155 pd=1.03 as=0.1155 ps=1.03 w=0.7 l=0.15
X9 a_207_n202# a_n207_n299# a_111_n202# w_n1463_n397# sky130_fd_pr__pfet_01v8 ad=0.1155 pd=1.03 as=0.1155 ps=1.03 w=0.7 l=0.15
X10 a_1167_18# a_n207_n299# a_1071_18# w_n1463_n397# sky130_fd_pr__pfet_01v8 ad=0.1155 pd=1.03 as=0.1155 ps=1.03 w=0.7 l=0.15
X11 a_n1137_n202# a_n1167_n299# a_n1233_n202# w_n1463_n397# sky130_fd_pr__pfet_01v8 ad=0.1155 pd=1.03 as=0.1155 ps=1.03 w=0.7 l=0.15
X12 a_495_n202# a_n207_n299# a_399_n202# w_n1463_n397# sky130_fd_pr__pfet_01v8 ad=0.1155 pd=1.03 as=0.1155 ps=1.03 w=0.7 l=0.15
X13 a_n849_18# a_n975_n299# a_n945_18# w_n1463_n397# sky130_fd_pr__pfet_01v8 ad=0.1155 pd=1.03 as=0.1155 ps=1.03 w=0.7 l=0.15
X14 a_n81_18# a_n207_n299# a_n177_18# w_n1463_n397# sky130_fd_pr__pfet_01v8 ad=0.1155 pd=1.03 as=0.1155 ps=1.03 w=0.7 l=0.15
X15 a_n561_n202# a_n975_n299# a_n657_n202# w_n1463_n397# sky130_fd_pr__pfet_01v8 ad=0.1155 pd=1.03 as=0.1155 ps=1.03 w=0.7 l=0.15
X16 a_111_n202# a_n207_n299# a_15_n202# w_n1463_n397# sky130_fd_pr__pfet_01v8 ad=0.1155 pd=1.03 as=0.1155 ps=1.03 w=0.7 l=0.15
X17 a_783_n202# a_n207_n299# a_687_n202# w_n1463_n397# sky130_fd_pr__pfet_01v8 ad=0.1155 pd=1.03 as=0.1155 ps=1.03 w=0.7 l=0.15
X18 a_1071_n202# a_n207_n299# a_975_n202# w_n1463_n397# sky130_fd_pr__pfet_01v8 ad=0.1155 pd=1.03 as=0.1155 ps=1.03 w=0.7 l=0.15
X19 a_303_18# a_n207_n299# a_207_18# w_n1463_n397# sky130_fd_pr__pfet_01v8 ad=0.1155 pd=1.03 as=0.1155 ps=1.03 w=0.7 l=0.15
X20 a_399_n202# a_n207_n299# a_303_n202# w_n1463_n397# sky130_fd_pr__pfet_01v8 ad=0.1155 pd=1.03 as=0.1155 ps=1.03 w=0.7 l=0.15
X21 a_n1041_18# a_n1167_n299# a_n1137_18# w_n1463_n397# sky130_fd_pr__pfet_01v8 ad=0.1155 pd=1.03 as=0.1155 ps=1.03 w=0.7 l=0.15
X22 a_n273_18# a_n975_n299# a_n369_18# w_n1463_n397# sky130_fd_pr__pfet_01v8 ad=0.1155 pd=1.03 as=0.1155 ps=1.03 w=0.7 l=0.15
X23 a_111_18# a_n207_n299# a_15_18# w_n1463_n397# sky130_fd_pr__pfet_01v8 ad=0.1155 pd=1.03 as=0.1155 ps=1.03 w=0.7 l=0.15
X24 a_n465_n202# a_n975_n299# a_n561_n202# w_n1463_n397# sky130_fd_pr__pfet_01v8 ad=0.1155 pd=1.03 as=0.1155 ps=1.03 w=0.7 l=0.15
X25 a_687_n202# a_n207_n299# a_591_n202# w_n1463_n397# sky130_fd_pr__pfet_01v8 ad=0.1155 pd=1.03 as=0.1155 ps=1.03 w=0.7 l=0.15
X26 a_207_18# a_n207_n299# a_111_18# w_n1463_n397# sky130_fd_pr__pfet_01v8 ad=0.1155 pd=1.03 as=0.1155 ps=1.03 w=0.7 l=0.15
X27 a_591_18# a_n207_n299# a_495_18# w_n1463_n397# sky130_fd_pr__pfet_01v8 ad=0.1155 pd=1.03 as=0.1155 ps=1.03 w=0.7 l=0.15
X28 a_n753_n202# a_n975_n299# a_n849_n202# w_n1463_n397# sky130_fd_pr__pfet_01v8 ad=0.1155 pd=1.03 as=0.1155 ps=1.03 w=0.7 l=0.15
X29 a_975_n202# a_n207_n299# a_879_n202# w_n1463_n397# sky130_fd_pr__pfet_01v8 ad=0.1155 pd=1.03 as=0.1155 ps=1.03 w=0.7 l=0.15
X30 a_n177_18# a_n207_n299# a_n273_18# w_n1463_n397# sky130_fd_pr__pfet_01v8 ad=0.1155 pd=1.03 as=0.1155 ps=1.03 w=0.7 l=0.15
X31 a_15_18# a_n207_n299# a_n81_18# w_n1463_n397# sky130_fd_pr__pfet_01v8 ad=0.1155 pd=1.03 as=0.1155 ps=1.03 w=0.7 l=0.15
X32 a_n81_n202# a_n207_n299# a_n177_n202# w_n1463_n397# sky130_fd_pr__pfet_01v8 ad=0.1155 pd=1.03 as=0.1155 ps=1.03 w=0.7 l=0.15
X33 a_1263_n202# a_n207_n299# a_1167_n202# w_n1463_n397# sky130_fd_pr__pfet_01v8 ad=0.217 pd=2.02 as=0.1155 ps=1.03 w=0.7 l=0.15
X34 a_n561_18# a_n975_n299# a_n657_18# w_n1463_n397# sky130_fd_pr__pfet_01v8 ad=0.1155 pd=1.03 as=0.1155 ps=1.03 w=0.7 l=0.15
X35 a_495_18# a_n207_n299# a_399_18# w_n1463_n397# sky130_fd_pr__pfet_01v8 ad=0.1155 pd=1.03 as=0.1155 ps=1.03 w=0.7 l=0.15
X36 a_15_n202# a_n207_n299# a_n81_n202# w_n1463_n397# sky130_fd_pr__pfet_01v8 ad=0.1155 pd=1.03 as=0.1155 ps=1.03 w=0.7 l=0.15
X37 a_n1233_18# a_n1299_n299# a_n1325_18# w_n1463_n397# sky130_fd_pr__pfet_01v8 ad=0.1155 pd=1.03 as=0.217 ps=2.02 w=0.7 l=0.15
X38 a_n1041_n202# a_n1167_n299# a_n1137_n202# w_n1463_n397# sky130_fd_pr__pfet_01v8 ad=0.1155 pd=1.03 as=0.1155 ps=1.03 w=0.7 l=0.15
X39 a_n369_n202# a_n975_n299# a_n465_n202# w_n1463_n397# sky130_fd_pr__pfet_01v8 ad=0.1155 pd=1.03 as=0.1155 ps=1.03 w=0.7 l=0.15
X40 a_n465_18# a_n975_n299# a_n561_18# w_n1463_n397# sky130_fd_pr__pfet_01v8 ad=0.1155 pd=1.03 as=0.1155 ps=1.03 w=0.7 l=0.15
X41 a_399_18# a_n207_n299# a_303_18# w_n1463_n397# sky130_fd_pr__pfet_01v8 ad=0.1155 pd=1.03 as=0.1155 ps=1.03 w=0.7 l=0.15
X42 a_n657_n202# a_n975_n299# a_n753_n202# w_n1463_n397# sky130_fd_pr__pfet_01v8 ad=0.1155 pd=1.03 as=0.1155 ps=1.03 w=0.7 l=0.15
X43 a_n1137_18# a_n1167_n299# a_n1233_18# w_n1463_n397# sky130_fd_pr__pfet_01v8 ad=0.1155 pd=1.03 as=0.1155 ps=1.03 w=0.7 l=0.15
X44 a_783_18# a_n207_n299# a_687_18# w_n1463_n397# sky130_fd_pr__pfet_01v8 ad=0.1155 pd=1.03 as=0.1155 ps=1.03 w=0.7 l=0.15
X45 a_879_n202# a_n207_n299# a_783_n202# w_n1463_n397# sky130_fd_pr__pfet_01v8 ad=0.1155 pd=1.03 as=0.1155 ps=1.03 w=0.7 l=0.15
X46 a_1071_18# a_n207_n299# a_975_18# w_n1463_n397# sky130_fd_pr__pfet_01v8 ad=0.1155 pd=1.03 as=0.1155 ps=1.03 w=0.7 l=0.15
X47 a_n945_n202# a_n975_n299# a_n1041_n202# w_n1463_n397# sky130_fd_pr__pfet_01v8 ad=0.1155 pd=1.03 as=0.1155 ps=1.03 w=0.7 l=0.15
X48 a_1167_n202# a_n207_n299# a_1071_n202# w_n1463_n397# sky130_fd_pr__pfet_01v8 ad=0.1155 pd=1.03 as=0.1155 ps=1.03 w=0.7 l=0.15
X49 a_n753_18# a_n975_n299# a_n849_18# w_n1463_n397# sky130_fd_pr__pfet_01v8 ad=0.1155 pd=1.03 as=0.1155 ps=1.03 w=0.7 l=0.15
X50 a_n369_18# a_n975_n299# a_n465_18# w_n1463_n397# sky130_fd_pr__pfet_01v8 ad=0.1155 pd=1.03 as=0.1155 ps=1.03 w=0.7 l=0.15
X51 a_303_n202# a_n207_n299# a_207_n202# w_n1463_n397# sky130_fd_pr__pfet_01v8 ad=0.1155 pd=1.03 as=0.1155 ps=1.03 w=0.7 l=0.15
X52 a_687_18# a_n207_n299# a_591_18# w_n1463_n397# sky130_fd_pr__pfet_01v8 ad=0.1155 pd=1.03 as=0.1155 ps=1.03 w=0.7 l=0.15
X53 a_n273_n202# a_n975_n299# a_n369_n202# w_n1463_n397# sky130_fd_pr__pfet_01v8 ad=0.1155 pd=1.03 as=0.1155 ps=1.03 w=0.7 l=0.15
.ends

.subckt por_output_buffer w_33421_n285686# m2_34641_n286220# VSUBS m1_33354_n286009#
XXM53 m2_34641_n286220# VSUBS m2_34641_n286220# VSUBS m2_33873_n286220# m2_33873_n286220#
+ m2_34641_n286220# VSUBS m2_34641_n286220# m1_33354_n286009# VSUBS VSUBS m2_33681_n286220#
+ m2_33489_n286220# VSUBS VSUBS m2_34641_n286220# m2_33873_n286220# m2_33681_n286220#
+ VSUBS m2_34641_n286220# VSUBS VSUBS m2_33873_n286220# VSUBS m2_33489_n286220# VSUBS
+ m2_34641_n286220# VSUBS VSUBS m2_34641_n286220# m2_33873_n286220# VSUBS sky130_fd_pr__nfet_01v8_PR763Z
XXM54 w_33421_n285686# m2_33873_n286220# m2_34641_n286220# w_33421_n285686# w_33421_n285686#
+ m2_34641_n286220# m2_33873_n286220# m2_34641_n286220# m2_34641_n286220# w_33421_n285686#
+ w_33421_n285686# w_33421_n285686# w_33421_n285686# w_33421_n285686# m2_33681_n286220#
+ w_33421_n285686# m2_33681_n286220# w_33421_n285686# m2_34641_n286220# m2_33873_n286220#
+ w_33421_n285686# w_33421_n285686# m2_34641_n286220# w_33421_n285686# m2_34641_n286220#
+ m2_34641_n286220# w_33421_n285686# w_33421_n285686# m2_34641_n286220# w_33421_n285686#
+ m2_34641_n286220# m2_34641_n286220# w_33421_n285686# w_33421_n285686# w_33421_n285686#
+ w_33421_n285686# w_33421_n285686# w_33421_n285686# m1_33354_n286009# w_33421_n285686#
+ m2_33873_n286220# m2_33873_n286220# w_33421_n285686# m2_33873_n286220# m2_34641_n286220#
+ m2_33681_n286220# m2_33873_n286220# m2_34641_n286220# w_33421_n285686# m2_34641_n286220#
+ w_33421_n285686# m2_34641_n286220# m2_33489_n286220# m2_33873_n286220# m2_33489_n286220#
+ m2_34641_n286220# w_33421_n285686# m2_33873_n286220# m2_33489_n286220# w_33421_n285686#
+ w_33421_n285686# sky130_fd_pr__pfet_01v8_DD63S8
.ends

.subckt sky130_fd_pr__pfet_01v8_U6B66J a_n73_118# a_n33_21# w_n211_n477# a_n73_n258#
+ a_15_118# a_n33_n355# a_15_n258#
X0 a_15_118# a_n33_21# a_n73_118# w_n211_n477# sky130_fd_pr__pfet_01v8 ad=0.203 pd=1.98 as=0.203 ps=1.98 w=0.7 l=0.15
X1 a_15_n258# a_n33_n355# a_n73_n258# w_n211_n477# sky130_fd_pr__pfet_01v8 ad=0.203 pd=1.98 as=0.203 ps=1.98 w=0.7 l=0.15
.ends

.subckt sky130_fd_pr__pfet_g5v0d10v5_PQJ659 a_n80_n297# a_80_n200# w_n338_n497# a_n138_n200#
X0 a_80_n200# a_n80_n297# a_n138_n200# w_n338_n497# sky130_fd_pr__pfet_g5v0d10v5 ad=0.58 pd=4.58 as=0.58 ps=4.58 w=2 l=0.8
.ends

.subckt sky130_fd_pr__nfet_01v8_G7LLWL a_n29_n50# a_26_n154# a_n249_n224# a_n147_n50#
+ a_89_n50# a_n92_n154#
X0 a_89_n50# a_26_n154# a_n29_n50# a_n249_n224# sky130_fd_pr__nfet_01v8 ad=0.145 pd=1.58 as=0.0725 ps=0.79 w=0.5 l=0.3
X1 a_n29_n50# a_n92_n154# a_n147_n50# a_n249_n224# sky130_fd_pr__nfet_01v8 ad=0.0725 pd=0.79 as=0.145 ps=1.58 w=0.5 l=0.3
.ends

.subckt sky130_fd_pr__nfet_01v8_5QNSAB a_n33_n50# a_n227_n224# a_63_n50# a_n125_n50#
+ a_n81_n154#
X0 a_n33_n50# a_n81_n154# a_n125_n50# a_n227_n224# sky130_fd_pr__nfet_01v8 ad=0.0825 pd=0.83 as=0.155 ps=1.62 w=0.5 l=0.15
X1 a_63_n50# a_n81_n154# a_n33_n50# a_n227_n224# sky130_fd_pr__nfet_01v8 ad=0.155 pd=1.62 as=0.0825 ps=0.83 w=0.5 l=0.15
.ends

.subckt sky130_fd_pr__pfet_g5v0d10v5_KLZS5A a_n683_n200# a_n189_n297# a_29_n297# a_189_n200#
+ a_n901_n200# a_247_n297# a_n407_n297# a_465_n297# a_407_n200# a_n625_n297# a_683_n297#
+ a_625_n200# a_n843_n297# w_n1101_n497# a_843_n200# a_n29_n200# a_n247_n200# a_n465_n200#
X0 a_n247_n200# a_n407_n297# a_n465_n200# w_n1101_n497# sky130_fd_pr__pfet_g5v0d10v5 ad=0.29 pd=2.29 as=0.29 ps=2.29 w=2 l=0.8
X1 a_843_n200# a_683_n297# a_625_n200# w_n1101_n497# sky130_fd_pr__pfet_g5v0d10v5 ad=0.58 pd=4.58 as=0.29 ps=2.29 w=2 l=0.8
X2 a_407_n200# a_247_n297# a_189_n200# w_n1101_n497# sky130_fd_pr__pfet_g5v0d10v5 ad=0.29 pd=2.29 as=0.29 ps=2.29 w=2 l=0.8
X3 a_189_n200# a_29_n297# a_n29_n200# w_n1101_n497# sky130_fd_pr__pfet_g5v0d10v5 ad=0.29 pd=2.29 as=0.29 ps=2.29 w=2 l=0.8
X4 a_n465_n200# a_n625_n297# a_n683_n200# w_n1101_n497# sky130_fd_pr__pfet_g5v0d10v5 ad=0.29 pd=2.29 as=0.29 ps=2.29 w=2 l=0.8
X5 a_625_n200# a_465_n297# a_407_n200# w_n1101_n497# sky130_fd_pr__pfet_g5v0d10v5 ad=0.29 pd=2.29 as=0.29 ps=2.29 w=2 l=0.8
X6 a_n29_n200# a_n189_n297# a_n247_n200# w_n1101_n497# sky130_fd_pr__pfet_g5v0d10v5 ad=0.29 pd=2.29 as=0.29 ps=2.29 w=2 l=0.8
X7 a_n683_n200# a_n843_n297# a_n901_n200# w_n1101_n497# sky130_fd_pr__pfet_g5v0d10v5 ad=0.29 pd=2.29 as=0.58 ps=4.58 w=2 l=0.8
.ends

.subckt sky130_fd_pr__pfet_01v8_SKYQWJ a_n88_n318# a_30_118# a_n33_n415# a_n33_21#
+ a_n88_118# a_30_n318# w_n226_n537#
X0 a_30_n318# a_n33_n415# a_n88_n318# w_n226_n537# sky130_fd_pr__pfet_01v8 ad=0.29 pd=2.58 as=0.29 ps=2.58 w=1 l=0.3
X1 a_30_118# a_n33_21# a_n88_118# w_n226_n537# sky130_fd_pr__pfet_01v8 ad=0.29 pd=2.58 as=0.29 ps=2.58 w=1 l=0.3
.ends

.subckt sky130_fd_pr__nfet_g5v0d10v5_69TNYL a_100_n100# a_n292_n322# a_n158_n100#
+ a_n100_n188#
X0 a_100_n100# a_n100_n188# a_n158_n100# a_n292_n322# sky130_fd_pr__nfet_g5v0d10v5 ad=0.29 pd=2.58 as=0.29 ps=2.58 w=1 l=1
.ends

.subckt sky130_fd_pr__nfet_g5v0d10v5_WSE8X6 a_n331_n402# a_29_n268# a_n29_n180# a_n129_n268#
+ a_n187_n180# a_129_n180#
X0 a_129_n180# a_29_n268# a_n29_n180# a_n331_n402# sky130_fd_pr__nfet_g5v0d10v5 ad=0.522 pd=4.18 as=0.261 ps=2.09 w=1.8 l=0.5
X1 a_n29_n180# a_n129_n268# a_n187_n180# a_n331_n402# sky130_fd_pr__nfet_g5v0d10v5 ad=0.261 pd=2.09 as=0.522 ps=4.18 w=1.8 l=0.5
.ends

.subckt sky130_fd_pr__pfet_g5v0d10v5_PHU9Y6 a_129_n290# a_29_n387# a_n129_n387# a_n29_n290#
+ a_n187_n290# w_n387_n587#
X0 a_129_n290# a_29_n387# a_n29_n290# w_n387_n587# sky130_fd_pr__pfet_g5v0d10v5 ad=0.841 pd=6.38 as=0.4205 ps=3.19 w=2.9 l=0.5
X1 a_n29_n290# a_n129_n387# a_n187_n290# w_n387_n587# sky130_fd_pr__pfet_g5v0d10v5 ad=0.4205 pd=3.19 as=0.841 ps=6.38 w=2.9 l=0.5
.ends

.subckt sky130_fd_pr__pfet_01v8_X6X8XQ a_n81_n167# a_n33_n70# a_63_n70# a_n125_n70#
+ w_n263_n289#
X0 a_n33_n70# a_n81_n167# a_n125_n70# w_n263_n289# sky130_fd_pr__pfet_01v8 ad=0.1155 pd=1.03 as=0.217 ps=2.02 w=0.7 l=0.15
X1 a_63_n70# a_n81_n167# a_n33_n70# w_n263_n289# sky130_fd_pr__pfet_01v8 ad=0.217 pd=2.02 as=0.1155 ps=1.03 w=0.7 l=0.15
.ends

.subckt sky130_fd_pr__nfet_g5v0d10v5_N5F8XL a_n108_n180# a_n242_n402# a_n50_n268#
+ a_50_n180#
X0 a_50_n180# a_n50_n268# a_n108_n180# a_n242_n402# sky130_fd_pr__nfet_g5v0d10v5 ad=0.522 pd=4.18 as=0.522 ps=4.18 w=1.8 l=0.5
.ends

.subckt sky130_fd_pr__cap_mim_m3_1_FJFAMD m3_n386_n240# c1_n346_n200#
X0 c1_n346_n200# m3_n386_n240# sky130_fd_pr__cap_mim_m3_1 l=2 w=2
.ends

.subckt levelShifter ain aout VCCL VCCH VSS
Xsky130_fd_pr__nfet_g5v0d10v5_WSE8X6_0 VSS S1B VSS S1B m2_2125_n529# m2_2125_n529#
+ sky130_fd_pr__nfet_g5v0d10v5_WSE8X6