* NGSPICE file created from sky130_sw_ip__bgrref_por.ext - technology: sky130A

.subckt sky130_sw_ip__bgrref_por vbg por avss avdd dvdd porb dvss porb_h[0] porb_h[1]
X0 dvss.t440 x2.VT2.t0 sky130_fd_pr__cap_mim_m3_2 l=16 w=16
X1 dvss.t441 x2.VT3 sky130_fd_pr__cap_mim_m3_2 l=16 w=16
X2 a_35262_n291454.t5 a_35074_n291454# dvdd.t285 dvdd.t283 sky130_fd_pr__pfet_01v8 ad=0.1155 pd=1.03 as=0.1155 ps=1.03 w=0.7 l=0.15
X3 a_29895_n287373# x2.Td_Sd.t6 dvdd.t170 dvdd.t169 sky130_fd_pr__pfet_01v8_hvt ad=0.1218 pd=1.42 as=0.07245 ps=0.765 w=0.42 l=0.15
X4 x2.Td_Sd.t0 a_25883_n288267.t4 dvdd.t274 dvdd.t273 sky130_fd_pr__pfet_01v8 ad=0.217 pd=2.02 as=0.1155 ps=1.03 w=0.7 l=0.15
X5 dvdd.t172 x2.Td_Sd.t7 a_29214_n287320# dvdd.t171 sky130_fd_pr__pfet_01v8_hvt ad=0.172775 pd=1.58 as=0.063 ps=0.72 w=0.42 l=0.15
X6 a_37002_n287783.t1 a_36398_n287783.t4 dvss.t108 dvss.t107 sky130_fd_pr__nfet_g5v0d10v5 ad=0.29 pd=2.58 as=0.145 ps=1.29 w=1 l=0.5
X7 x2.Td_L.t5 a_32918_n290853.t3 dvdd.t72 dvdd.t17 sky130_fd_pr__pfet_01v8 ad=0.1155 pd=1.03 as=0.217 ps=2.02 w=0.7 l=0.15
X8 a_5972_n290308.t2 a_4566_n291516.t3 x1.vbn.t3 avss.t32 sky130_fd_pr__nfet_g5v0d10v5 ad=1.16 pd=8.58 as=1.16 ps=8.58 w=4 l=0.5
X9 avdd.t77 x2.por_output_driver_h_0/sky130_fd_sc_hvl__inv_16_0.A.t4 porb_h[0].t22 avdd.t68 sky130_fd_pr__pfet_g5v0d10v5 ad=0.21 pd=1.78 as=0.21 ps=1.78 w=1.5 l=0.5
X10 a_25567_n288267.t3 a_25251_n288267.t4 dvdd.t181 dvdd.t180 sky130_fd_pr__pfet_01v8 ad=0.203 pd=1.98 as=0.203 ps=1.98 w=0.7 l=0.15
X11 porb_h[1].t15 x2.por_output_driver_h_0/sky130_fd_sc_hvl__inv_16_0.A.t5 dvss.t71 dvss.t70 sky130_fd_pr__nfet_g5v0d10v5 ad=0.105 pd=1.03 as=0.105 ps=1.03 w=0.75 l=0.5
X12 a_29211_n288416# x2.delayPulse_digital_0/sky130_fd_sc_ls__dfrtp_1_0.D dvdd.t328 dvdd.t327 sky130_fd_pr__pfet_01v8_hvt ad=0.05985 pd=0.705 as=0.1197 ps=1.41 w=0.42 l=0.15
X13 avdd.t120 a_34073_n287091.t4 sky130_fd_pr__cap_mim_m3_1 l=2 w=2
X14 a_30814_n289746# x2.vbp2 a_30112_n289746# dvdd.t12 sky130_fd_pr__pfet_01v8 ad=0.145 pd=1.29 as=0.29 ps=2.58 w=1 l=0.5
X15 a_32918_n290853.t0 a_32248_n290278# dvss.t204 dvss.t203 sky130_fd_pr__nfet_01v8 ad=0.145 pd=1.58 as=0.145 ps=1.58 w=0.5 l=0.15
X16 a_18961_n289908# a_19195_n292308# dvss.t315 sky130_fd_pr__res_xhigh_po_0p69 l=10
X17 dvss.t261 x2.Td_Lb a_30075_n288356# dvss.t260 sky130_fd_pr__nfet_01v8 ad=0.211225 pd=1.45 as=0.0504 ps=0.66 w=0.42 l=0.15
X18 por.t47 a_35454_n291454.t24 dvdd.t81 dvdd.t51 sky130_fd_pr__pfet_01v8 ad=0.1155 pd=1.03 as=0.1155 ps=1.03 w=0.7 l=0.15
X19 dvdd.t119 x2.vbp1.t31 a_30112_n289746# dvdd.t11 sky130_fd_pr__pfet_01v8 ad=0.145 pd=1.29 as=0.29 ps=2.58 w=1 l=0.5
X20 a_30837_n288413# x2.Td_Lb dvss.t259 dvss.t258 sky130_fd_pr__nfet_01v8 ad=0.0441 pd=0.63 as=0.0756 ps=0.78 w=0.42 l=0.15
X21 por.t46 a_35454_n291454.t25 dvdd.t83 dvdd.t82 sky130_fd_pr__pfet_01v8 ad=0.1155 pd=1.03 as=0.1155 ps=1.03 w=0.7 l=0.15
X22 a_8490_n290308# a_8656_n292108# avss.t25 sky130_fd_pr__res_xhigh_po_0p35 l=7
X23 porb_h[0].t15 x2.por_output_driver_h_0/sky130_fd_sc_hvl__inv_16_0.A.t6 dvss.t318 dvss.t317 sky130_fd_pr__nfet_g5v0d10v5 ad=0.105 pd=1.03 as=0.19875 ps=2.03 w=0.75 l=0.5
X24 a_19662_n286374# a_19896_n288774# dvss.t177 sky130_fd_pr__res_xhigh_po_0p69 l=10
X25 a_29895_n287373# a_29481_n287384# a_29214_n287320# dvdd.t111 sky130_fd_pr__pfet_01v8_hvt ad=0.063 pd=0.72 as=0.1239 ps=1.43 w=0.42 l=0.15
X26 a_29966_n288037# a_29487_n288398# a_29876_n288037# dvdd.t214 sky130_fd_pr__pfet_01v8_hvt ad=0.0504 pd=0.66 as=0.063 ps=0.72 w=0.42 l=0.15
X27 x2.VT3 x2.VT2.t8 a_30410_n291353# dvss.t125 sky130_fd_pr__nfet_01v8 ad=0.0725 pd=0.79 as=0.145 ps=1.58 w=0.5 l=0.3
X28 dvdd.t143 x2.vbp1.t32 a_28094_n290278.t7 dvdd.t43 sky130_fd_pr__pfet_01v8 ad=0.29 pd=2.58 as=0.145 ps=1.29 w=1 l=0.5
X29 a_34073_n287091.t3 x2.x3.S1B dvss.t13 dvss.t12 sky130_fd_pr__nfet_g5v0d10v5 ad=0.522 pd=4.18 as=0.261 ps=2.09 w=1.8 l=0.5
X30 dvss.t442 x2.VT2.t3 sky130_fd_pr__cap_mim_m3_2 l=16 w=16
X31 avdd.t95 x1.vt.t3 x1.vo.t2 avdd.t94 sky130_fd_pr__pfet_g5v0d10v5 ad=1.16 pd=8.58 as=1.16 ps=8.58 w=4 l=0.5
X32 porb.t15 a_35469_n289052.t24 dvss.t169 dvss.t168 sky130_fd_pr__nfet_01v8 ad=0.0825 pd=0.83 as=0.0825 ps=0.83 w=0.5 l=0.15
X33 dvss.t443 x2.VT2.t2 sky130_fd_pr__cap_mim_m3_2 l=16 w=16
X34 dvss.t366 x2.VT3 a_32248_n290278# dvss.t365 sky130_fd_pr__nfet_01v8 ad=0.145 pd=1.58 as=0.0725 ps=0.79 w=0.5 l=0.3
X35 a_9100_n286429# a_9266_n288829# avss.t55 sky130_fd_pr__res_xhigh_po_0p35 l=10
X36 dvss.t444 x2.VT2.t3 sky130_fd_pr__cap_mim_m3_2 l=16 w=16
X37 a_35277_n289052.t5 a_35089_n289052# dvdd.t191 dvdd.t188 sky130_fd_pr__pfet_01v8 ad=0.1155 pd=1.03 as=0.1155 ps=1.03 w=0.7 l=0.15
X38 x2.delayPulse_digital_0/sky130_fd_sc_ls__dfrtp_1_0.D a_27214_n288191# dvdd.t210 dvdd.t209 sky130_fd_pr__pfet_01v8 ad=0.0825 pd=0.83 as=0.155 ps=1.62 w=0.5 l=0.15
X39 dvss.t445 x2.VT2.t0 sky130_fd_pr__cap_mim_m3_2 l=16 w=16
X40 a_35469_n289052.t20 a_35277_n289052.t6 dvdd.t340 dvdd.t205 sky130_fd_pr__pfet_01v8 ad=0.1155 pd=1.03 as=0.1155 ps=1.03 w=0.7 l=0.15
X41 a_19662_n286374# a_19428_n288774# dvss.t85 sky130_fd_pr__res_xhigh_po_0p69 l=10
X42 dvss.t156 a_28056_n288420# x2.delayPulse_digital_0/sky130_fd_sc_ls__dfrtn_1_0.CLK_N dvss.t155 sky130_fd_pr__nfet_01v8 ad=0.1554 pd=1.16 as=0.1036 ps=1.02 w=0.74 l=0.15
X43 por.t15 a_35454_n291454.t26 dvss.t302 dvss.t301 sky130_fd_pr__nfet_01v8 ad=0.0825 pd=0.83 as=0.0825 ps=0.83 w=0.5 l=0.15
X44 dvdd.t239 a_35262_n291454.t6 a_35454_n291454.t23 dvdd.t231 sky130_fd_pr__pfet_01v8 ad=0.1155 pd=1.03 as=0.1155 ps=1.03 w=0.7 l=0.15
X45 x2.delayPulse_digital_0/sky130_fd_sc_ls__dfrtn_1_0.CLK_N a_28056_n288420# dvss.t154 dvss.t153 sky130_fd_pr__nfet_01v8 ad=0.1036 pd=1.02 as=0.1295 ps=1.09 w=0.74 l=0.15
X46 x2.VT3 dvss.t364 sky130_fd_pr__cap_mim_m3_1 l=16 w=16
X47 x2.VT2.t0 dvss.t198 sky130_fd_pr__cap_mim_m3_1 l=16 w=16
X48 porb.t47 a_35469_n289052.t25 dvdd.t163 dvdd.t162 sky130_fd_pr__pfet_01v8 ad=0.1155 pd=1.03 as=0.1155 ps=1.03 w=0.7 l=0.15
X49 dvdd.t256 a_35454_n291454.t27 por.t45 dvdd.t255 sky130_fd_pr__pfet_01v8 ad=0.1155 pd=1.03 as=0.1155 ps=1.03 w=0.7 l=0.15
X50 dvss.t215 a_35089_n289052# a_35277_n289052.t1 dvss.t214 sky130_fd_pr__nfet_01v8 ad=0.0825 pd=0.83 as=0.0825 ps=0.83 w=0.5 l=0.15
X51 dvdd.t167 a_35469_n289052.t26 porb.t46 dvdd.t73 sky130_fd_pr__pfet_01v8 ad=0.1155 pd=1.03 as=0.1155 ps=1.03 w=0.7 l=0.15
X52 a_28094_n290278.t9 x2.vbp2 w_31992_n290497# dvdd.t14 sky130_fd_pr__pfet_01v8 ad=0.29 pd=2.58 as=0.145 ps=1.29 w=1 l=0.5
X53 dvdd.t235 a_35262_n291454.t7 a_35454_n291454.t22 dvdd.t92 sky130_fd_pr__pfet_01v8 ad=0.1155 pd=1.03 as=0.1155 ps=1.03 w=0.7 l=0.15
X54 dvss.t446 x2.VT3 sky130_fd_pr__cap_mim_m3_2 l=16 w=16
X55 dvss.t76 a_37002_n287783.t4 x2.por_output_driver_h_0/sky130_fd_sc_hvl__inv_16_0.A.t1 dvss.t75 sky130_fd_pr__nfet_g5v0d10v5 ad=0.145 pd=1.29 as=0.29 ps=2.58 w=1 l=0.5
X56 a_8490_n290308# a_7996_n292010# avss.t0 sky130_fd_pr__res_xhigh_po_0p35 l=7
X57 dvss.t190 a_35469_n289052.t27 porb.t14 dvss.t189 sky130_fd_pr__nfet_01v8 ad=0.0825 pd=0.83 as=0.0825 ps=0.83 w=0.5 l=0.15
X58 x2.VT3 dvss.t363 sky130_fd_pr__cap_mim_m3_1 l=16 w=16
X59 x2.VT2.t3 dvss.t329 sky130_fd_pr__cap_mim_m3_1 l=16 w=16
X60 a_9764_n286429# a_9930_n288829# avss.t54 sky130_fd_pr__res_xhigh_po_0p35 l=10
X61 a_25567_n288267.t0 dvss.t207 sky130_fd_pr__cap_mim_m3_1 l=10 w=10
X62 dvdd.t139 a_35454_n291454.t28 por.t44 dvdd.t138 sky130_fd_pr__pfet_01v8 ad=0.217 pd=2.02 as=0.1155 ps=1.03 w=0.7 l=0.15
X63 a_11424_n286429# x1.Vinn.t0 avss.t31 sky130_fd_pr__res_xhigh_po_0p35 l=10
X64 a_18258_n286374# a_18024_n288774# dvss.t436 sky130_fd_pr__res_xhigh_po_0p69 l=10
X65 a_24270_n290121.t17 a_24270_n290121.t16 avdd.t5 avdd.t4 sky130_fd_pr__pfet_g5v0d10v5 ad=0.29 pd=2.29 as=0.29 ps=2.29 w=2 l=0.8
X66 a_8768_n286429# a_8934_n288829# avss.t24 sky130_fd_pr__res_xhigh_po_0p35 l=10
X67 dvdd.t341 a_35277_n289052.t7 a_35469_n289052.t21 dvdd.t311 sky130_fd_pr__pfet_01v8 ad=0.1155 pd=1.03 as=0.1155 ps=1.03 w=0.7 l=0.15
X68 porb_h[1].t31 x2.por_output_driver_h_0/sky130_fd_sc_hvl__inv_16_0.A.t7 avdd.t76 avdd.t42 sky130_fd_pr__pfet_g5v0d10v5 ad=0.21 pd=1.78 as=0.21 ps=1.78 w=1.5 l=0.5
X69 a_10428_n286429# a_10594_n288829# avss.t62 sky130_fd_pr__res_xhigh_po_0p35 l=10
X70 x2.VT2.t2 dvss.t333 sky130_fd_pr__cap_mim_m3_1 l=16 w=16
X71 porb_h[1].t30 x2.por_output_driver_h_0/sky130_fd_sc_hvl__inv_16_0.A.t8 avdd.t75 avdd.t40 sky130_fd_pr__pfet_g5v0d10v5 ad=0.21 pd=1.78 as=0.21 ps=1.78 w=1.5 l=0.5
X72 a_34073_n287091.t0 a_34015_n286994.t4 avdd.t1 avdd.t0 sky130_fd_pr__pfet_g5v0d10v5 ad=0.841 pd=6.38 as=0.4205 ps=3.19 w=2.9 l=0.5
X73 dvdd.t324 a_15914_n289870# x2.din dvdd.t323 sky130_fd_pr__pfet_g5v0d10v5 ad=0.29 pd=2.58 as=0.145 ps=1.29 w=1 l=0.5
X74 a_7772_n286429# a_7938_n288829# avss.t39 sky130_fd_pr__res_xhigh_po_0p35 l=10
X75 a_30410_n291353# x2.vbn1.t16 dvss.t423 dvss.t422 sky130_fd_pr__nfet_g5v0d10v5 ad=0.58 pd=4.58 as=0.29 ps=2.29 w=2 l=0.8
X76 dvss.t139 x2.por_output_driver_h_0/sky130_fd_sc_hvl__inv_16_0.A.t9 porb_h[1].t14 dvss.t138 sky130_fd_pr__nfet_g5v0d10v5 ad=0.105 pd=1.03 as=0.105 ps=1.03 w=0.75 l=0.5
X77 dvdd.t140 a_35454_n291454.t29 por.t43 dvdd.t84 sky130_fd_pr__pfet_01v8 ad=0.1155 pd=1.03 as=0.1155 ps=1.03 w=0.7 l=0.15
X78 dvss.t447 x2.VT3 sky130_fd_pr__cap_mim_m3_2 l=16 w=16
X79 dvss.t382 a_35469_n289052.t28 porb.t13 dvss.t381 sky130_fd_pr__nfet_01v8 ad=0.0825 pd=0.83 as=0.0825 ps=0.83 w=0.5 l=0.15
X80 dvdd.t276 a_25883_n288267.t5 x2.Td_Sd.t1 dvdd.t275 sky130_fd_pr__pfet_01v8 ad=0.1155 pd=1.03 as=0.217 ps=2.02 w=0.7 l=0.15
X81 dvdd.t62 x2.x3.S1 x2.x3.S1B dvdd.t61 sky130_fd_pr__pfet_01v8 ad=0.1155 pd=1.03 as=0.217 ps=2.02 w=0.7 l=0.15
X82 a_30103_n287373# a_30022_n287538# a_30031_n287373# dvss.t236 sky130_fd_pr__nfet_01v8 ad=0.0441 pd=0.63 as=0.0441 ps=0.63 w=0.42 l=0.15
X83 avdd.t112 a_13449_n292106.t3 x1.vt.t2 avdd.t111 sky130_fd_pr__pfet_g5v0d10v5 ad=1.16 pd=8.58 as=1.16 ps=8.58 w=4 l=0.5
X84 a_17790_n286374# a_18024_n288774# dvss.t435 sky130_fd_pr__res_xhigh_po_0p69 l=10
X85 a_17790_n286374# a_17790_n288774# dvss.t63 sky130_fd_pr__res_xhigh_po_0p69 l=10
X86 avdd.t79 x2.x3.aout.t3 a_36398_n287783.t0 avdd.t78 sky130_fd_pr__pfet_g5v0d10v5 ad=0.725 pd=5.58 as=0.3625 ps=2.79 w=2.5 l=0.5
X87 x2.VT2.t1 dvss.t418 sky130_fd_pr__cap_mim_m3_1 l=16 w=16
X88 dvdd.t193 a_35277_n289052.t8 a_35469_n289052.t8 dvdd.t192 sky130_fd_pr__pfet_01v8 ad=0.1155 pd=1.03 as=0.1155 ps=1.03 w=0.7 l=0.15
X89 x2.vbp1.t27 x2.vbp1.t26 dvdd.t155 dvdd.t154 sky130_fd_pr__pfet_01v8 ad=0.145 pd=1.29 as=0.29 ps=2.58 w=1 l=0.5
X90 dvss.t448 x2.VT3 sky130_fd_pr__cap_mim_m3_2 l=16 w=16
X91 dvdd.t196 a_35454_n291454.t30 por.t42 dvdd.t195 sky130_fd_pr__pfet_01v8 ad=0.1155 pd=1.03 as=0.1155 ps=1.03 w=0.7 l=0.15
X92 a_13144_n286429# a_13310_n288829# avss.t68 sky130_fd_pr__res_xhigh_po_0p35 l=10
X93 avdd.t70 x2.por_output_driver_h_0/sky130_fd_sc_hvl__inv_16_0.A.t10 porb_h[1].t29 avdd.t38 sky130_fd_pr__pfet_g5v0d10v5 ad=0.21 pd=1.78 as=0.21 ps=1.78 w=1.5 l=0.5
X94 a_29481_n287384# x2.delayPulse_digital_0/sky130_fd_sc_ls__dfrtn_1_0.CLK_N dvss.t167 dvss.t166 sky130_fd_pr__nfet_01v8 ad=0.2035 pd=2.03 as=0.1212 ps=1.1 w=0.74 l=0.15
X95 dvdd.t294 a_35469_n289052.t29 porb.t45 dvdd.t265 sky130_fd_pr__pfet_01v8 ad=0.217 pd=2.02 as=0.1155 ps=1.03 w=0.7 l=0.15
X96 a_22470_n286374# a_22236_n288774# dvss.t9 sky130_fd_pr__res_xhigh_po_0p69 l=10
X97 a_35469_n289052.t9 a_35277_n289052.t9 dvss.t221 dvss.t220 sky130_fd_pr__nfet_01v8 ad=0.0825 pd=0.83 as=0.0825 ps=0.83 w=0.5 l=0.15
X98 x1.VD.t5 x1.Vinn.t2 x1.VS avss.t19 sky130_fd_pr__nfet_01v8 ad=0.58 pd=4.58 as=0.58 ps=4.58 w=2 l=1
X99 a_35454_n291454.t7 a_35262_n291454.t8 dvss.t276 dvss.t275 sky130_fd_pr__nfet_01v8 ad=0.0825 pd=0.83 as=0.0825 ps=0.83 w=0.5 l=0.15
X100 x1.VD.t4 x1.Vinn.t3 x1.VS avss.t20 sky130_fd_pr__nfet_01v8 ad=0.58 pd=4.58 as=0.58 ps=4.58 w=2 l=1
X101 a_29997_n288356# a_29671_n288104# a_29876_n288037# dvss.t264 sky130_fd_pr__nfet_01v8 ad=0.0504 pd=0.66 as=0.0735 ps=0.77 w=0.42 l=0.15
X102 x2.delayPulse_digital_0/sky130_fd_sc_ls__dfrtn_1_0.CLK_N a_28056_n288420# dvdd.t137 dvdd.t136 sky130_fd_pr__pfet_01v8_hvt ad=0.168 pd=1.42 as=0.196 ps=1.47 w=1.12 l=0.15
X103 a_30649_n288001# a_29671_n288104# a_30447_n288420# dvdd.t223 sky130_fd_pr__pfet_01v8_hvt ad=0.0567 pd=0.69 as=0.23015 ps=1.73 w=0.42 l=0.15
X104 dvss.t184 x2.vbn1.t13 x2.vbn1.t14 dvss.t183 sky130_fd_pr__nfet_g5v0d10v5 ad=0.29 pd=2.29 as=0.58 ps=4.58 w=2 l=0.8
X105 a_7772_n286429# a_7606_n288829# avss.t58 sky130_fd_pr__res_xhigh_po_0p35 l=10
X106 por.t14 a_35454_n291454.t31 dvss.t231 dvss.t230 sky130_fd_pr__nfet_01v8 ad=0.0825 pd=0.83 as=0.0825 ps=0.83 w=0.5 l=0.15
X107 dvdd.t190 a_35089_n289052# a_35277_n289052.t4 dvdd.t186 sky130_fd_pr__pfet_01v8 ad=0.1155 pd=1.03 as=0.1155 ps=1.03 w=0.7 l=0.15
X108 porb_h[1].t28 x2.por_output_driver_h_0/sky130_fd_sc_hvl__inv_16_0.A.t11 avdd.t74 avdd.t36 sky130_fd_pr__pfet_g5v0d10v5 ad=0.21 pd=1.78 as=0.21 ps=1.78 w=1.5 l=0.5
X109 a_28607_n287397# x2.Td_Sd.t8 a_28571_n287754# dvdd.t35 sky130_fd_pr__pfet_01v8_hvt ad=0.295 pd=2.59 as=0.135 ps=1.27 w=1 l=0.15
X110 x2.delayPulse_digital_0/sky130_fd_sc_ls__xor2_1_0.X a_28607_n287397# a_28768_n287754# dvdd.t164 sky130_fd_pr__pfet_01v8_hvt ad=0.3864 pd=2.93 as=0.196 ps=1.47 w=1.12 l=0.15
X111 dvdd.t157 x2.vbp1.t24 x2.vbp1.t25 dvdd.t156 sky130_fd_pr__pfet_01v8 ad=0.29 pd=2.58 as=0.145 ps=1.29 w=1 l=0.5
X112 x2.delayPulse_digital_0/sky130_fd_sc_ls__dfrtn_1_0.CLK_N a_28056_n288420# dvss.t152 dvss.t151 sky130_fd_pr__nfet_01v8 ad=0.1036 pd=1.02 as=0.1036 ps=1.02 w=0.74 l=0.15
X113 avss.t11 x1.vbn.t4 x1.vo.t1 avss.t9 sky130_fd_pr__nfet_g5v0d10v5 ad=0.58 pd=4.58 as=0.58 ps=4.58 w=2 l=1
X114 dvss.t176 a_28607_n287397# x2.delayPulse_digital_0/sky130_fd_sc_ls__xor2_1_0.X dvss.t175 sky130_fd_pr__nfet_01v8 ad=0.2997 pd=2.29 as=0.1554 ps=1.16 w=0.74 l=0.15
X115 dvdd.t30 a_35469_n289052.t30 porb.t44 dvdd.t29 sky130_fd_pr__pfet_01v8 ad=0.1155 pd=1.03 as=0.1155 ps=1.03 w=0.7 l=0.15
X116 x2.vbp1.t23 x2.vbp1.t22 dvdd.t34 dvdd.t33 sky130_fd_pr__pfet_01v8 ad=0.145 pd=1.29 as=0.29 ps=2.58 w=1 l=0.5
X117 porb_h[0].t14 x2.por_output_driver_h_0/sky130_fd_sc_hvl__inv_16_0.A.t12 dvss.t67 dvss.t66 sky130_fd_pr__nfet_g5v0d10v5 ad=0.105 pd=1.03 as=0.105 ps=1.03 w=0.75 l=0.5
X118 porb_h[0].t13 x2.por_output_driver_h_0/sky130_fd_sc_hvl__inv_16_0.A.t13 dvss.t69 dvss.t68 sky130_fd_pr__nfet_g5v0d10v5 ad=0.105 pd=1.03 as=0.105 ps=1.03 w=0.75 l=0.5
X119 dvdd.t32 a_35469_n289052.t31 porb.t43 dvdd.t31 sky130_fd_pr__pfet_01v8 ad=0.1155 pd=1.03 as=0.1155 ps=1.03 w=0.7 l=0.15
X120 a_21066_n286374# a_20832_n288774# dvss.t62 sky130_fd_pr__res_xhigh_po_0p69 l=10
X121 por.t41 a_35454_n291454.t32 dvdd.t258 dvdd.t257 sky130_fd_pr__pfet_01v8 ad=0.1155 pd=1.03 as=0.1155 ps=1.03 w=0.7 l=0.15
X122 x2.x3.aout.t2 a_34073_n287091.t5 avdd.t81 avdd.t80 sky130_fd_pr__pfet_g5v0d10v5 ad=0.841 pd=6.38 as=0.4205 ps=3.19 w=2.9 l=0.5
X123 a_25883_n288267.t1 a_25567_n288267.t4 dvdd.t4 dvdd.t3 sky130_fd_pr__pfet_01v8 ad=0.203 pd=1.98 as=0.203 ps=1.98 w=0.7 l=0.15
X124 avdd.t121 a_24270_n290121.t0 sky130_fd_pr__cap_mim_m3_2 l=16 w=16
X125 dvss.t408 a_24253_n287224.t4 x2.VT2.t6 dvss.t407 sky130_fd_pr__nfet_01v8 ad=0.145 pd=1.58 as=0.0725 ps=0.79 w=0.5 l=0.3
X126 porb_h[0].t27 x2.por_output_driver_h_0/sky130_fd_sc_hvl__inv_16_0.A.t14 avdd.t73 avdd.t66 sky130_fd_pr__pfet_g5v0d10v5 ad=0.21 pd=1.78 as=0.21 ps=1.78 w=1.5 l=0.5
X127 porb.t12 a_35469_n289052.t32 dvss.t36 dvss.t35 sky130_fd_pr__nfet_01v8 ad=0.0825 pd=0.83 as=0.0825 ps=0.83 w=0.5 l=0.15
X128 dvss.t78 a_32918_n290853.t4 x2.Td_L.t1 dvss.t77 sky130_fd_pr__nfet_01v8 ad=0.155 pd=1.62 as=0.0825 ps=0.83 w=0.5 l=0.15
X129 x2.Td_Lb x2.Td_L.t6 dvdd.t346 dvdd.t106 sky130_fd_pr__pfet_01v8 ad=0.1155 pd=1.03 as=0.217 ps=2.02 w=0.7 l=0.15
X130 x2.VT3 x2.VT2.t9 dvdd.t290 dvdd.t289 sky130_fd_pr__pfet_01v8 ad=0.145 pd=1.29 as=0.29 ps=2.58 w=1 l=0.3
X131 por.t13 a_35454_n291454.t33 dvss.t304 dvss.t303 sky130_fd_pr__nfet_01v8 ad=0.0825 pd=0.83 as=0.0825 ps=0.83 w=0.5 l=0.15
X132 por.t40 a_35454_n291454.t34 dvdd.t342 dvdd.t112 sky130_fd_pr__pfet_01v8 ad=0.1155 pd=1.03 as=0.1155 ps=1.03 w=0.7 l=0.15
X133 a_34015_n286994.t1 x2.x3.S1 dvss.t53 dvss.t52 sky130_fd_pr__nfet_g5v0d10v5 ad=0.522 pd=4.18 as=0.261 ps=2.09 w=1.8 l=0.5
X134 x2.VT2.t7 a_24253_n287224.t5 a_30814_n289746# dvdd.t320 sky130_fd_pr__pfet_01v8 ad=0.145 pd=1.29 as=0.29 ps=2.58 w=1 l=0.3
X135 dvdd.t121 a_30779_n287655# a_30728_n287754# dvdd.t120 sky130_fd_pr__pfet_01v8_hvt ad=0.0819 pd=0.81 as=0.0567 ps=0.69 w=0.42 l=0.15
X136 a_18493_n289908# a_18259_n292308# dvss.t409 sky130_fd_pr__res_xhigh_po_0p69 l=10
X137 a_35469_n289052.t2 a_35277_n289052.t10 dvdd.t26 dvdd.t25 sky130_fd_pr__pfet_01v8 ad=0.1155 pd=1.03 as=0.1155 ps=1.03 w=0.7 l=0.15
X138 a_19194_n286374# a_19428_n288774# dvss.t249 sky130_fd_pr__res_xhigh_po_0p69 l=10
X139 a_34015_n286994.t3 a_34073_n287091.t6 avdd.t89 avdd.t88 sky130_fd_pr__pfet_g5v0d10v5 ad=0.841 pd=6.38 as=0.4205 ps=3.19 w=2.9 l=0.5
X140 dvss.t449 x2.VT3 sky130_fd_pr__cap_mim_m3_2 l=16 w=16
X141 x2.VT3 dvss.t362 sky130_fd_pr__cap_mim_m3_1 l=16 w=16
X142 dvss.t278 a_35262_n291454.t9 a_35454_n291454.t6 dvss.t277 sky130_fd_pr__nfet_01v8 ad=0.0825 pd=0.83 as=0.0825 ps=0.83 w=0.5 l=0.15
X143 a_25251_n288267.t1 x2.Td_S.t4 dvdd.t50 dvdd.t49 sky130_fd_pr__pfet_01v8 ad=0.203 pd=1.98 as=0.203 ps=1.98 w=0.7 l=0.15
X144 dvss.t33 x2.Td_Sd.t9 a_30103_n287373# dvss.t32 sky130_fd_pr__nfet_01v8 ad=0.240325 pd=1.715 as=0.0441 ps=0.63 w=0.42 l=0.15
X145 porb.t42 a_35469_n289052.t33 dvdd.t39 dvdd.t38 sky130_fd_pr__pfet_01v8 ad=0.1155 pd=1.03 as=0.1155 ps=1.03 w=0.7 l=0.15
X146 dvdd.t279 x2.vbp1.t20 x2.vbp1.t21 dvdd.t184 sky130_fd_pr__pfet_01v8 ad=0.29 pd=2.58 as=0.145 ps=1.29 w=1 l=0.5
X147 avdd.t72 x2.por_output_driver_h_0/sky130_fd_sc_hvl__inv_16_0.A.t15 porb_h[0].t26 avdd.t64 sky130_fd_pr__pfet_g5v0d10v5 ad=0.21 pd=1.78 as=0.21 ps=1.78 w=1.5 l=0.5
X148 x2.vbn1.t12 x2.vbn1.t11 dvss.t229 dvss.t228 sky130_fd_pr__nfet_g5v0d10v5 ad=0.29 pd=2.29 as=0.29 ps=2.29 w=2 l=0.8
X149 a_23173_n289908# a_22939_n292308# dvss.t248 sky130_fd_pr__res_xhigh_po_0p69 l=10
X150 avdd.t71 x2.por_output_driver_h_0/sky130_fd_sc_hvl__inv_16_0.A.t16 porb_h[0].t28 avdd.t62 sky130_fd_pr__pfet_g5v0d10v5 ad=0.21 pd=1.78 as=0.21 ps=1.78 w=1.5 l=0.5
X151 dvss.t450 x2.VT3 sky130_fd_pr__cap_mim_m3_2 l=16 w=16
X152 a_29688_n287709# a_29481_n287384# dvss.t114 dvss.t113 sky130_fd_pr__nfet_01v8 ad=0.2479 pd=2.15 as=0.3299 ps=2.67 w=0.74 l=0.15
X153 a_35469_n289052.t3 a_35277_n289052.t11 dvdd.t28 dvdd.t27 sky130_fd_pr__pfet_01v8 ad=0.1155 pd=1.03 as=0.1155 ps=1.03 w=0.7 l=0.15
X154 a_18726_n286374# a_18960_n288774# dvss.t247 sky130_fd_pr__res_xhigh_po_0p69 l=10
X155 dvss.t122 a_36398_n287783.t5 a_37002_n287783.t0 dvss.t121 sky130_fd_pr__nfet_g5v0d10v5 ad=0.145 pd=1.29 as=0.29 ps=2.58 w=1 l=0.5
X156 porb.t11 a_35469_n289052.t34 dvss.t41 dvss.t40 sky130_fd_pr__nfet_01v8 ad=0.0825 pd=0.83 as=0.0825 ps=0.83 w=0.5 l=0.15
X157 porb.t41 a_35469_n289052.t35 dvdd.t46 dvdd.t45 sky130_fd_pr__pfet_01v8 ad=0.1155 pd=1.03 as=0.1155 ps=1.03 w=0.7 l=0.15
X158 dvdd.t37 x2.Td_Sd.t10 a_29487_n288398# dvdd.t36 sky130_fd_pr__pfet_01v8_hvt ad=0.15 pd=1.3 as=0.31 ps=2.62 w=1 l=0.15
X159 a_14140_n286429# a_14306_n288829# avss.t30 sky130_fd_pr__res_xhigh_po_0p35 l=10
X160 x2.VT3 dvss.t361 sky130_fd_pr__cap_mim_m3_1 l=16 w=16
X161 avdd.t69 x2.por_output_driver_h_0/sky130_fd_sc_hvl__inv_16_0.A.t17 porb_h[1].t27 avdd.t68 sky130_fd_pr__pfet_g5v0d10v5 ad=0.21 pd=1.78 as=0.21 ps=1.78 w=1.5 l=0.5
X162 dvdd.t243 a_31045_n288085# x2.porPre dvdd.t242 sky130_fd_pr__pfet_01v8_hvt ad=0.336 pd=2.84 as=0.3808 ps=2.92 w=1.12 l=0.15
X163 x2.porbPre a_31115_n287366# dvss.t161 dvss.t160 sky130_fd_pr__nfet_01v8 ad=0.2146 pd=2.06 as=0.126075 ps=1.1 w=0.74 l=0.15
X164 dvdd.t44 x2.vbp1.t18 x2.vbp1.t19 dvdd.t43 sky130_fd_pr__pfet_01v8 ad=0.29 pd=2.58 as=0.145 ps=1.29 w=1 l=0.5
X165 dvss.t451 x2.VT2.t3 sky130_fd_pr__cap_mim_m3_2 l=16 w=16
X166 a_25567_n288267.t2 a_25251_n288267.t5 dvdd.t182 dvdd.t180 sky130_fd_pr__pfet_01v8 ad=0.203 pd=1.98 as=0.203 ps=1.98 w=0.7 l=0.15
X167 dvss.t434 a_35454_n291454.t35 por.t12 dvss.t433 sky130_fd_pr__nfet_01v8 ad=0.0825 pd=0.83 as=0.0825 ps=0.83 w=0.5 l=0.15
X168 a_35262_n291454.t4 a_35074_n291454# dvdd.t284 dvdd.t283 sky130_fd_pr__pfet_01v8 ad=0.1155 pd=1.03 as=0.1155 ps=1.03 w=0.7 l=0.15
X169 dvss.t65 x2.por_output_driver_h_0/sky130_fd_sc_hvl__inv_16_0.A.t18 porb_h[0].t12 dvss.t64 sky130_fd_pr__nfet_g5v0d10v5 ad=0.2025 pd=2.04 as=0.105 ps=1.03 w=0.75 l=0.5
X170 a_9764_n286429# a_9598_n288829# avss.t22 sky130_fd_pr__res_xhigh_po_0p35 l=10
X171 dvdd.t345 a_35277_n289052.t12 a_35469_n289052.t22 dvdd.t77 sky130_fd_pr__pfet_01v8 ad=0.1155 pd=1.03 as=0.1155 ps=1.03 w=0.7 l=0.15
X172 avss.t10 x1.vbn.t5 x1.vo.t0 avss.t9 sky130_fd_pr__nfet_g5v0d10v5 ad=0.58 pd=4.58 as=0.58 ps=4.58 w=2 l=1
X173 a_31045_n288085# a_30447_n288420# dvss.t292 dvss.t291 sky130_fd_pr__nfet_01v8 ad=0.15675 pd=1.67 as=0.15675 ps=1.67 w=0.55 l=0.15
X174 a_8768_n286429# a_8602_n288829# avss.t57 sky130_fd_pr__res_xhigh_po_0p35 l=10
X175 dvss.t452 x2.VT2.t3 sky130_fd_pr__cap_mim_m3_2 l=16 w=16
X176 por.t39 a_35454_n291454.t36 dvdd.t52 dvdd.t51 sky130_fd_pr__pfet_01v8 ad=0.1155 pd=1.03 as=0.1155 ps=1.03 w=0.7 l=0.15
X177 porb.t40 a_35469_n289052.t36 dvdd.t114 dvdd.t100 sky130_fd_pr__pfet_01v8 ad=0.1155 pd=1.03 as=0.1155 ps=1.03 w=0.7 l=0.15
X178 a_35454_n291454.t21 a_35262_n291454.t10 dvdd.t91 dvdd.t90 sky130_fd_pr__pfet_01v8 ad=0.1155 pd=1.03 as=0.1155 ps=1.03 w=0.7 l=0.15
X179 porb_h[1].t13 x2.por_output_driver_h_0/sky130_fd_sc_hvl__inv_16_0.A.t19 dvss.t294 dvss.t293 sky130_fd_pr__nfet_g5v0d10v5 ad=0.105 pd=1.03 as=0.105 ps=1.03 w=0.75 l=0.5
X180 a_29998_n287709# a_29688_n287709# a_29895_n287373# dvdd.t66 sky130_fd_pr__pfet_01v8_hvt ad=0.0504 pd=0.66 as=0.063 ps=0.72 w=0.42 l=0.15
X181 a_19897_n289908# a_19663_n292308# dvss.t279 sky130_fd_pr__res_xhigh_po_0p69 l=10
X182 a_22002_n286374# a_22236_n288774# dvss.t342 sky130_fd_pr__res_xhigh_po_0p69 l=10
X183 a_28571_n287754# x2.Td_L.t7 dvdd.t348 dvdd.t347 sky130_fd_pr__pfet_01v8_hvt ad=0.135 pd=1.27 as=0.295 ps=2.59 w=1 l=0.15
X184 porb_h[0].t11 x2.por_output_driver_h_0/sky130_fd_sc_hvl__inv_16_0.A.t20 dvss.t296 dvss.t295 sky130_fd_pr__nfet_g5v0d10v5 ad=0.105 pd=1.03 as=0.105 ps=1.03 w=0.75 l=0.5
X185 porb_h[0].t10 x2.por_output_driver_h_0/sky130_fd_sc_hvl__inv_16_0.A.t21 dvss.t223 dvss.t222 sky130_fd_pr__nfet_g5v0d10v5 ad=0.105 pd=1.03 as=0.105 ps=1.03 w=0.75 l=0.5
X186 x2.delayPulse_digital_0/sky130_fd_sc_ls__dfrtn_1_0.CLK_N a_28056_n288420# dvdd.t135 dvdd.t134 sky130_fd_pr__pfet_01v8_hvt ad=0.1764 pd=1.435 as=0.1876 ps=1.455 w=1.12 l=0.15
X187 a_30112_n289746# x2.vbp2 a_30814_n289746# dvdd.t14 sky130_fd_pr__pfet_01v8 ad=0.29 pd=2.58 as=0.145 ps=1.29 w=1 l=0.5
X188 por.t38 a_35454_n291454.t37 dvdd.t54 dvdd.t53 sky130_fd_pr__pfet_01v8 ad=0.1155 pd=1.03 as=0.1155 ps=1.03 w=0.7 l=0.15
X189 a_14140_n286429# a_13974_n288829# avss.t61 sky130_fd_pr__res_xhigh_po_0p35 l=10
X190 a_24570_n290925.t3 a_24570_n290925.t2 a_24270_n290121.t1 avdd.t96 sky130_fd_pr__pfet_g5v0d10v5 ad=0.58 pd=4.58 as=0.58 ps=4.58 w=2 l=0.8
X191 a_13144_n286429# a_12978_n288829# avss.t60 sky130_fd_pr__res_xhigh_po_0p35 l=10
X192 x2.VT3 dvss.t360 sky130_fd_pr__cap_mim_m3_1 l=16 w=16
X193 dvss.t15 x2.por_output_driver_h_0/sky130_fd_sc_hvl__inv_16_0.A.t22 porb_h[1].t12 dvss.t14 sky130_fd_pr__nfet_g5v0d10v5 ad=0.105 pd=1.03 as=0.105 ps=1.03 w=0.75 l=0.5
X194 a_29876_n288037# x2.Td_Lb dvdd.t220 dvdd.t219 sky130_fd_pr__pfet_01v8_hvt ad=0.1239 pd=1.43 as=0.137125 ps=1.155 w=0.42 l=0.15
X195 x2.VT2.t0 dvss.t197 sky130_fd_pr__cap_mim_m3_1 l=16 w=16
X196 dvss.t453 x2.VT2.t1 sky130_fd_pr__cap_mim_m3_2 l=16 w=16
X197 a_19429_n289908# a_19663_n292308# dvss.t339 sky130_fd_pr__res_xhigh_po_0p69 l=10
X198 x1.Vinp.t1 x1.Vinn.t1 avss.t59 sky130_fd_pr__res_xhigh_po_0p35 l=9
X199 a_24270_n290121.t15 a_24270_n290121.t14 avdd.t83 avdd.t82 sky130_fd_pr__pfet_g5v0d10v5 ad=0.29 pd=2.29 as=0.29 ps=2.29 w=2 l=0.8
X200 a_22002_n286374# a_21768_n288774# dvss.t367 sky130_fd_pr__res_xhigh_po_0p69 l=10
X201 x2.vbn1.t0 dvss.t170 sky130_fd_pr__cap_mim_m3_1 l=16 w=16
X202 dvss.t17 x2.por_output_driver_h_0/sky130_fd_sc_hvl__inv_16_0.A.t23 porb_h[0].t9 dvss.t16 sky130_fd_pr__nfet_g5v0d10v5 ad=0.105 pd=1.03 as=0.105 ps=1.03 w=0.75 l=0.5
X203 avdd.t19 avdd.t18 a_14970_n288829# avss.t15 sky130_fd_pr__nfet_05v0_nvt ad=0.29 pd=2.58 as=0.29 ps=2.58 w=1 l=0.9
X204 a_20598_n286374# a_20364_n288774# dvss.t338 sky130_fd_pr__res_xhigh_po_0p69 l=10
X205 dvss.t454 x2.VT2.t3 sky130_fd_pr__cap_mim_m3_2 l=16 w=16
X206 porb.t39 a_35469_n289052.t37 dvdd.t115 dvdd.t57 sky130_fd_pr__pfet_01v8 ad=0.1155 pd=1.03 as=0.1155 ps=1.03 w=0.7 l=0.15
X207 por.t37 a_35454_n291454.t38 dvdd.t296 dvdd.t295 sky130_fd_pr__pfet_01v8 ad=0.1155 pd=1.03 as=0.1155 ps=1.03 w=0.7 l=0.15
X208 dvdd.t93 a_35262_n291454.t11 a_35454_n291454.t20 dvdd.t92 sky130_fd_pr__pfet_01v8 ad=0.1155 pd=1.03 as=0.1155 ps=1.03 w=0.7 l=0.15
X209 x2.VT2.t3 dvss.t328 sky130_fd_pr__cap_mim_m3_1 l=16 w=16
X210 x2.x3.S1 x2.porbPre dvdd.t309 dvdd.t308 sky130_fd_pr__pfet_01v8 ad=0.217 pd=2.02 as=0.1155 ps=1.03 w=0.7 l=0.15
X211 a_28094_n290278.t6 x2.vbp1.t33 dvdd.t145 dvdd.t144 sky130_fd_pr__pfet_01v8 ad=0.145 pd=1.29 as=0.29 ps=2.58 w=1 l=0.5
X212 a_4566_n290308.t0 a_4508_n291419.t0 a_4508_n291419.t1 avdd.t20 sky130_fd_pr__pfet_g5v0d10v5 ad=0.29 pd=2.58 as=0.29 ps=2.58 w=1 l=4
X213 dvss.t439 a_35277_n289052.t13 a_35469_n289052.t23 dvss.t438 sky130_fd_pr__nfet_01v8 ad=0.0825 pd=0.83 as=0.0825 ps=0.83 w=0.5 l=0.15
X214 dvdd.t297 a_35454_n291454.t39 por.t36 dvdd.t138 sky130_fd_pr__pfet_01v8 ad=0.217 pd=2.02 as=0.1155 ps=1.03 w=0.7 l=0.15
X215 dvss.t235 x2.porPre a_35074_n291454# dvss.t234 sky130_fd_pr__nfet_01v8 ad=0.0825 pd=0.83 as=0.155 ps=1.62 w=0.5 l=0.15
X216 dvdd.t95 a_35262_n291454.t12 a_35454_n291454.t19 dvdd.t94 sky130_fd_pr__pfet_01v8 ad=0.1155 pd=1.03 as=0.1155 ps=1.03 w=0.7 l=0.15
X217 a_18025_n289908# a_18259_n292308# dvss.t173 sky130_fd_pr__res_xhigh_po_0p69 l=10
X218 dvss.t402 a_24253_n287224.t6 x2.Td_S.t1 dvss.t401 sky130_fd_pr__nfet_01v8 ad=0.0725 pd=0.79 as=0.145 ps=1.58 w=0.5 l=0.3
X219 a_20130_n286374# a_20364_n288774# dvss.t437 sky130_fd_pr__res_xhigh_po_0p69 l=10
X220 dvss.t455 x2.VT3 sky130_fd_pr__cap_mim_m3_2 l=16 w=16
X221 a_12812_n286429# a_12646_n288829# avss.t27 sky130_fd_pr__res_xhigh_po_0p35 l=10
X222 porb_h[0].t8 x2.por_output_driver_h_0/sky130_fd_sc_hvl__inv_16_0.A.t24 dvss.t26 dvss.t25 sky130_fd_pr__nfet_g5v0d10v5 ad=0.105 pd=1.03 as=0.105 ps=1.03 w=0.75 l=0.5
X223 dvss.t43 a_35469_n289052.t38 porb.t10 dvss.t42 sky130_fd_pr__nfet_01v8 ad=0.0825 pd=0.83 as=0.0825 ps=0.83 w=0.5 l=0.15
X224 dvss.t233 a_35454_n291454.t40 por.t11 dvss.t232 sky130_fd_pr__nfet_01v8 ad=0.0825 pd=0.83 as=0.0825 ps=0.83 w=0.5 l=0.15
X225 dvdd.t277 a_25883_n288267.t6 x2.Td_Sd.t2 dvdd.t275 sky130_fd_pr__pfet_01v8 ad=0.1155 pd=1.03 as=0.217 ps=2.02 w=0.7 l=0.15
X226 a_30917_n287365# x2.Td_Sd.t11 dvss.t82 dvss.t81 sky130_fd_pr__nfet_01v8 ad=0.0504 pd=0.66 as=0.0819 ps=0.81 w=0.42 l=0.15
X227 dvss.t456 x2.VT3 sky130_fd_pr__cap_mim_m3_2 l=16 w=16
X228 a_32248_n290278# x2.VT3 w_31992_n290497# w_31992_n290497# sky130_fd_pr__pfet_01v8 ad=0.29 pd=2.58 as=0.29 ps=2.58 w=1 l=0.3
X229 dvdd.t48 a_35469_n289052.t39 porb.t38 dvdd.t47 sky130_fd_pr__pfet_01v8 ad=0.1155 pd=1.03 as=0.1155 ps=1.03 w=0.7 l=0.15
X230 dvss.t225 x2.vbn1.t9 x2.vbn1.t10 dvss.t224 sky130_fd_pr__nfet_g5v0d10v5 ad=0.29 pd=2.29 as=0.29 ps=2.29 w=2 l=0.8
X231 a_30011_n288135# a_29876_n288037# dvss.t431 dvss.t430 sky130_fd_pr__nfet_01v8 ad=0.24605 pd=1.405 as=0.211225 ps=1.45 w=0.74 l=0.15
X232 a_18025_n289908# a_17791_n292308# dvss.t4 sky130_fd_pr__res_xhigh_po_0p69 l=10
X233 a_17790_n288774# a_17791_n292308# dvss.t117 sky130_fd_pr__res_xhigh_po_0p69 l=10
X234 a_20130_n286374# a_19896_n288774# dvss.t178 sky130_fd_pr__res_xhigh_po_0p69 l=10
X235 dvdd.t199 a_35454_n291454.t41 por.t35 dvdd.t195 sky130_fd_pr__pfet_01v8 ad=0.1155 pd=1.03 as=0.1155 ps=1.03 w=0.7 l=0.15
X236 dvdd.t104 x2.Td_L.t8 x2.Td_Lb dvdd.t103 sky130_fd_pr__pfet_01v8 ad=0.217 pd=2.02 as=0.1155 ps=1.03 w=0.7 l=0.15
X237 a_28094_n290278.t5 x2.vbp1.t34 dvdd.t165 dvdd.t116 sky130_fd_pr__pfet_01v8 ad=0.145 pd=1.29 as=0.29 ps=2.58 w=1 l=0.5
X238 x1.VD.t2 x1.vo1.t2 x1.VY.t2 avss.t48 sky130_fd_pr__nfet_g5v0d10v5 ad=0.29 pd=2.58 as=0.29 ps=2.58 w=1 l=0.5
X239 a_28768_n287754# x2.Td_Sd.t12 dvdd.t76 dvdd.t75 sky130_fd_pr__pfet_01v8_hvt ad=0.196 pd=1.47 as=0.2352 ps=1.54 w=1.12 l=0.15
X240 a_18726_n286374# a_18492_n288774# dvss.t28 sky130_fd_pr__res_xhigh_po_0p69 l=10
X241 x2.x3.S1 x2.porbPre dvss.t389 dvss.t388 sky130_fd_pr__nfet_01v8 ad=0.145 pd=1.58 as=0.145 ps=1.58 w=0.5 l=0.15
X242 a_29481_n287384# x2.delayPulse_digital_0/sky130_fd_sc_ls__dfrtn_1_0.CLK_N dvdd.t161 dvdd.t160 sky130_fd_pr__pfet_01v8_hvt ad=0.29 pd=2.58 as=0.172775 ps=1.58 w=1 l=0.15
X243 a_35454_n291454.t5 a_35262_n291454.t13 dvss.t57 dvss.t56 sky130_fd_pr__nfet_01v8 ad=0.0825 pd=0.83 as=0.0825 ps=0.83 w=0.5 l=0.15
X244 a_28094_n290278.t4 x2.vbp1.t35 dvdd.t166 dvdd.t151 sky130_fd_pr__pfet_01v8 ad=0.145 pd=1.29 as=0.29 ps=2.58 w=1 l=0.5
X245 x2.Td_Sd.t3 a_25883_n288267.t7 dvss.t321 dvss.t320 sky130_fd_pr__nfet_01v8 ad=0.155 pd=1.62 as=0.0825 ps=0.83 w=0.5 l=0.15
X246 dvss.t421 a_30447_n287429# a_31115_n287366# dvss.t420 sky130_fd_pr__nfet_01v8 ad=0.126075 pd=1.1 as=0.15675 ps=1.67 w=0.55 l=0.15
X247 dvss.t11 x2.x3.S1B a_34073_n287091.t2 dvss.t10 sky130_fd_pr__nfet_g5v0d10v5 ad=0.261 pd=2.09 as=0.522 ps=4.18 w=1.8 l=0.5
X248 x2.vbp1.t17 x2.vbp1.t16 dvdd.t272 dvdd.t33 sky130_fd_pr__pfet_01v8 ad=0.145 pd=1.29 as=0.29 ps=2.58 w=1 l=0.5
X249 dvdd.t133 a_28056_n288420# x2.delayPulse_digital_0/sky130_fd_sc_ls__dfrtn_1_0.CLK_N dvdd.t132 sky130_fd_pr__pfet_01v8_hvt ad=0.196 pd=1.47 as=0.168 ps=1.42 w=1.12 l=0.15
X250 a_22237_n289908# a_22471_n292308# dvss.t140 sky130_fd_pr__res_xhigh_po_0p69 l=10
X251 a_30447_n287429# a_29688_n287709# a_30022_n287538# dvdd.t65 sky130_fd_pr__pfet_01v8_hvt ad=0.22385 pd=1.7 as=0.39 ps=1.78 w=1 l=0.15
X252 dvdd.t80 a_35454_n291454.t42 por.t34 dvdd.t79 sky130_fd_pr__pfet_01v8 ad=0.1155 pd=1.03 as=0.1155 ps=1.03 w=0.7 l=0.15